@<TRIPOS>MOLECULE
CHEMBL360774
   56    59     0     0     0
SMALL
USER_CHARGES

@<TRIPOS>ATOM
      1 C1          2.6701   -4.7626   -1.8766 C.3       1 <0>        -0.1543
      2 C2          1.6569   -3.8743   -1.1518 C.3       1 <0>         0.0566
      3 O1          0.3693   -4.4930   -1.1879 O.3       1 <0>        -0.3182
      4 C3         -0.6413   -3.8357   -0.5902 C.2       1 <0>         0.4651
      5 O2         -0.4365   -2.7677   -0.0535 O.2       1 <0>        -0.4716
      6 C4         -2.0148   -4.4212   -0.5879 C.2       1 <0>         0.5356
      7 O3         -2.2198   -5.4902   -1.1251 O.2       1 <0>        -0.4587
      8 N1         -3.0270   -3.7627    0.0108 N.am      1 <0>        -0.6399
      9 C5         -4.3306   -4.2624   -0.0697 C.ar      1 <0>         0.1418
     10 C6         -5.4062   -3.3873   -0.1562 C.ar      1 <0>        -0.0454
     11 C7         -6.6927   -3.8813   -0.2362 C.ar      1 <0>        -0.1791
     12 C8         -6.9118   -5.2517   -0.2301 C.ar      1 <0>         0.1858
     13 C9         -5.8379   -6.1265   -0.1433 C.ar      1 <0>        -0.1785
     14 C10        -4.5504   -5.6342   -0.0691 C.ar      1 <0>        -0.0314
     15 C11        -6.0770   -7.6144   -0.1363 C.3       1 <0>         0.5161
     16 F1         -4.8518   -8.2832   -0.0423 F         1 <0>        -0.1690
     17 F2         -6.8783   -7.9528    0.9595 F         1 <0>        -0.1628
     18 F3         -6.7230   -7.9885   -1.3195 F         1 <0>        -0.1632
     19 O4         -8.1789   -5.7374   -0.3088 O.3       1 <0>        -0.2522
     20 C12        -8.6925   -5.9838   -1.5434 C.ar      1 <0>         0.0915
     21 C13        -7.9204   -5.7427   -2.6770 C.ar      1 <0>        -0.1524
     22 C14        -8.4258   -5.9874   -3.9341 C.ar      1 <0>        -0.0834
     23 C15        -9.7191   -6.4797   -4.0804 C.ar      1 <0>         0.0773
     24 C16       -10.4995   -6.7235   -2.9380 C.ar      1 <0>        -0.0550
     25 C17        -9.9765   -6.4778   -1.6688 C.ar      1 <0>        -0.0862
     26 C18       -11.7913   -7.2301   -3.4283 C.2       1 <0>        -0.1434
     27 C19       -11.7110   -7.2584   -4.7808 C.2       1 <0>         0.0852
     28 N2        -10.4830   -6.8143   -5.1797 N.pl3     1 <0>        -0.5873
     29 H1        -10.1902   -6.7441   -6.1018 H         1 <0>         0.4204
     30 C20       -12.9550   -7.6324   -2.6025 C.ar      1 <0>        -0.0145
     31 C21       -12.7825   -8.5057   -1.5295 C.ar      1 <0>        -0.0792
     32 C22       -13.8685   -8.8773   -0.7638 C.ar      1 <0>        -0.1494
     33 C23       -15.1289   -8.3843   -1.0601 C.ar      1 <0>         0.0937
     34 C24       -15.3053   -7.5166   -2.1256 C.ar      1 <0>        -0.1506
     35 C25       -14.2242   -7.1341   -2.8929 C.ar      1 <0>        -0.0836
     36 F4        -16.1894   -8.7513   -0.3078 F         1 <0>        -0.1406
     37 C26        -7.8596   -2.9323   -0.3295 C.3       1 <0>         0.5169
     38 F5         -7.3909   -1.6142   -0.3174 F         1 <0>        -0.1719
     39 F6         -8.5583   -3.1678   -1.5184 F         1 <0>        -0.1628
     40 F7         -8.7130   -3.1338    0.7607 F         1 <0>        -0.1616
     41 H2          3.6522   -4.2907   -1.8491 H         1 <0>         0.0862
     42 H3          2.7197   -5.7337   -1.3840 H         1 <0>         0.0708
     43 H4          2.3601   -4.8964   -2.9130 H         1 <0>         0.0705
     44 H5          1.9669   -3.7406   -0.1154 H         1 <0>         0.0767
     45 H6          1.6073   -2.9032   -1.6444 H         1 <0>         0.0763
     46 H7         -2.8512   -2.9422    0.4974 H         1 <0>         0.4329
     47 H8         -5.2359   -2.3208   -0.1606 H         1 <0>         0.1658
     48 H9         -3.7145   -6.3151   -0.0063 H         1 <0>         0.1745
     49 H10        -6.9163   -5.3600   -2.5692 H         1 <0>         0.1259
     50 H11        -7.8186   -5.7970   -4.8067 H         1 <0>         0.1291
     51 H12       -10.5734   -6.6684   -0.7892 H         1 <0>         0.1358
     52 H13       -12.4996   -7.5833   -5.4434 H         1 <0>         0.1772
     53 H14       -11.8004   -8.8910   -1.2983 H         1 <0>         0.1335
     54 H15       -13.7358   -9.5537    0.0675 H         1 <0>         0.1365
     55 H16       -16.2899   -7.1355   -2.3532 H         1 <0>         0.1360
     56 H17       -14.3619   -6.4536   -3.7202 H         1 <0>         0.1328
@<TRIPOS>BOND
     1    1    2 1
     2    1   41 1
     3    1   42 1
     4    1   43 1
     5    2    3 1
     6    2   44 1
     7    2   45 1
     8    3    4 1
     9    4    5 2
    10    4    6 1
    11    6    7 2
    12    6    8 am
    13    8    9 1
    14    8   46 1
    15    9   14 ar
    16    9   10 ar
    17   10   11 ar
    18   10   47 1
    19   11   12 ar
    20   11   37 1
    21   12   13 ar
    22   12   19 1
    23   13   14 ar
    24   13   15 1
    25   14   48 1
    26   15   16 1
    27   15   17 1
    28   15   18 1
    29   19   20 1
    30   20   25 ar
    31   20   21 ar
    32   21   22 ar
    33   21   49 1
    34   22   23 ar
    35   22   50 1
    36   23   28 1
    37   23   24 ar
    38   24   25 ar
    39   24   26 1
    40   25   51 1
    41   26   27 2
    42   26   30 1
    43   27   28 1
    44   27   52 1
    45   28   29 1
    46   30   35 ar
    47   30   31 ar
    48   31   32 ar
    49   31   53 1
    50   32   33 ar
    51   32   54 1
    52   33   34 ar
    53   33   36 1
    54   34   35 ar
    55   34   55 1
    56   35   56 1
    57   37   38 1
    58   37   39 1
    59   37   40 1
@<TRIPOS>MOLECULE
CHEMBL378593
   41    43     0     0     0
SMALL
USER_CHARGES

@<TRIPOS>ATOM
      1 C1         -0.0187    1.5258    0.0104 C.3       1 <0>        -0.1430
      2 C2          0.0021   -0.0041    0.0020 C.3       1 <0>        -0.0543
      3 C3          0.7421   -0.5109    1.2415 C.3       1 <0>        -0.1455
      4 C4         -1.4117   -0.5257    0.0127 C.ar      1 <0>        -0.0643
      5 C5         -2.2586   -0.2044    1.0558 C.ar      1 <0>        -0.1227
      6 C6         -3.5600   -0.6842    1.0653 C.ar      1 <0>         0.1257
      7 C7         -4.0111   -1.4867    0.0272 C.ar      1 <0>        -0.1766
      8 C8         -3.1643   -1.8077   -1.0153 C.ar      1 <0>        -0.0991
      9 C9         -1.8644   -1.3235   -1.0275 C.ar      1 <0>         0.0700
     10 O1         -1.0324   -1.6350   -2.0569 O.3       1 <0>        -0.4936
     11 O2         -4.3934   -0.3684    2.0921 O.3       1 <0>        -0.2334
     12 C10        -5.6603   -0.8606    2.0602 C.ar      1 <0>         0.0660
     13 C11        -6.6733   -0.1309    1.4385 C.ar      1 <0>        -0.0364
     14 C12        -7.9626   -0.6135    1.3969 C.ar      1 <0>        -0.1316
     15 C13        -8.2646   -1.8419    1.9791 C.ar      1 <0>         0.2246
     16 C14        -7.2431   -2.5807    2.6071 C.ar      1 <0>        -0.1724
     17 C15        -5.9377   -2.0840    2.6389 C.ar      1 <0>        -0.0057
     18 Br1        -4.5617   -3.0758    3.4747 Br        1 <0>         0.0173
     19 C16        -7.5822   -3.8759    3.2163 C.2       1 <0>         0.4079
     20 C17        -8.9329   -4.3148    3.1374 C.2       1 <0>        -0.2755
     21 C18        -9.8595   -3.5439    2.5142 C.2       1 <0>         0.1417
     22 N1         -9.5457   -2.3415    1.9489 N.pl3     1 <0>        -0.5775
     23 C19       -11.2594   -4.0234    2.4449 C.2       1 <0>         0.5242
     24 O3        -11.5631   -5.0968    2.9441 O.co2     1 <0>        -0.6437
     25 O4        -12.1106   -3.3455    1.8885 O.co2     1 <0>        -0.6702
     26 O5         -6.7325   -4.5520    3.7708 O.2       1 <0>        -0.4736
     27 Br2        -6.2727    1.5382    0.6452 Br        1 <0>        -0.0140
     28 H1          1.0039    1.9031    0.0027 H         1 <0>         0.0577
     29 H2         -0.5459    1.8868   -0.8726 H         1 <0>         0.0564
     30 H3         -0.5289    1.8773    0.9072 H         1 <0>         0.0578
     31 H4          0.5123   -0.3556   -0.8948 H         1 <0>         0.0863
     32 H5          1.7647   -0.1336    1.2338 H         1 <0>         0.0582
     33 H6          0.2319   -0.1594    2.1383 H         1 <0>         0.0588
     34 H7          0.7568   -1.6008    1.2356 H         1 <0>         0.0549
     35 H8         -1.9072    0.4200    1.8639 H         1 <0>         0.1356
     36 H9         -5.0243   -1.8606    0.0348 H         1 <0>         0.1270
     37 H10        -3.5154   -2.4324   -1.8234 H         1 <0>         0.1312
     38 H11        -0.5228   -2.4453   -1.9194 H         1 <0>         0.3838
     39 H12        -8.7390   -0.0393    0.9133 H         1 <0>         0.1562
     40 H13        -9.2205   -5.2605    3.5725 H         1 <0>         0.1625
     41 H14       -10.2438   -1.8267    1.5145 H         1 <0>         0.4294
@<TRIPOS>BOND
     1    1    2 1
     2    1   28 1
     3    1   29 1
     4    1   30 1
     5    2    3 1
     6    2    4 1
     7    2   31 1
     8    3   32 1
     9    3   33 1
    10    3   34 1
    11    4    9 ar
    12    4    5 ar
    13    5    6 ar
    14    5   35 1
    15    6    7 ar
    16    6   11 1
    17    7    8 ar
    18    7   36 1
    19    8    9 ar
    20    8   37 1
    21    9   10 1
    22   10   38 1
    23   11   12 1
    24   12   17 ar
    25   12   13 ar
    26   13   14 ar
    27   13   27 1
    28   14   15 ar
    29   14   39 1
    30   15   22 1
    31   15   16 ar
    32   16   17 ar
    33   16   19 1
    34   17   18 1
    35   19   20 1
    36   19   26 2
    37   20   21 2
    38   20   40 1
    39   21   22 1
    40   21   23 1
    41   22   41 1
    42   23   24 2
    43   23   25 1
@<TRIPOS>MOLECULE
CHEMBL378593__1
   40    42     0     0     0
SMALL
USER_CHARGES

@<TRIPOS>ATOM
      1 C1         -0.0187    1.5258    0.0104 C.3       1 <0>        -0.1414
      2 C2          0.0021   -0.0041    0.0020 C.3       1 <0>        -0.0507
      3 C3          0.7421   -0.5109    1.2415 C.3       1 <0>        -0.1443
      4 C4         -1.4117   -0.5257    0.0127 C.ar      1 <0>        -0.0697
      5 C5         -2.2585   -0.2044    1.0557 C.ar      1 <0>        -0.1362
      6 C6         -3.5600   -0.6842    1.0653 C.ar      1 <0>         0.1416
      7 C7         -4.0111   -1.4867    0.0272 C.ar      1 <0>        -0.1723
      8 C8         -3.1644   -1.8078   -1.0154 C.ar      1 <0>        -0.0995
      9 C9         -1.8644   -1.3235   -1.0275 C.ar      1 <0>         0.0520
     10 O1         -1.0324   -1.6351   -2.0569 O.3       1 <0>        -0.4961
     11 O2         -4.3934   -0.3685    2.0920 O.3       1 <0>        -0.2306
     12 C10        -5.6594   -0.8603    2.0602 C.ar      1 <0>         0.0013
     13 C11        -6.6737   -0.1250    1.4353 C.ar      1 <0>        -0.0636
     14 C12        -7.9496   -0.5918    1.3884 C.ar      1 <0>        -0.0776
     15 C13        -8.2671   -1.8332    1.9739 C.ar      1 <0>         0.1845
     16 C14        -7.2417   -2.5821    2.6081 C.ar      1 <0>        -0.1953
     17 C15        -5.9324   -2.0807    2.6383 C.ar      1 <0>         0.0192
     18 Br1        -4.5532   -3.0690    3.4730 Br        1 <0>        -0.0170
     19 C16        -7.5616   -3.8268    3.1947 C.ar      1 <0>         0.2980
     20 C17        -8.8719   -4.2616    3.1228 C.ar      1 <0>        -0.2955
     21 C18        -9.8295   -3.4670    2.4800 C.ar      1 <0>         0.1405
     22 N1         -9.5124   -2.3056    1.9365 N.ar      1 <0>        -0.5284
     23 C19       -11.2299   -3.9403    2.4072 C.2       1 <0>         0.5349
     24 O3        -11.5391   -5.0133    2.9047 O.co2     1 <0>        -0.6907
     25 O4        -12.0774   -3.2583    1.8496 O.co2     1 <0>        -0.6766
     26 O5         -6.6110   -4.5735    3.8099 O.3       1 <0>        -0.6588
     27 Br2        -6.2629    1.5430    0.6449 Br        1 <0>        -0.0655
     28 H1          1.0039    1.9031    0.0027 H         1 <0>         0.0528
     29 H2         -0.5459    1.8868   -0.8726 H         1 <0>         0.0553
     30 H3         -0.5289    1.8773    0.9072 H         1 <0>         0.0580
     31 H4          0.5123   -0.3556   -0.8948 H         1 <0>         0.0821
     32 H5          0.7568   -1.6008    1.2356 H         1 <0>         0.0542
     33 H6          1.7647   -0.1336    1.2338 H         1 <0>         0.0534
     34 H7          0.2319   -0.1594    2.1383 H         1 <0>         0.0591
     35 H8         -1.9072    0.4200    1.8639 H         1 <0>         0.1295
     36 H9         -5.0243   -1.8606    0.0347 H         1 <0>         0.1321
     37 H10        -3.5154   -2.4324   -1.8234 H         1 <0>         0.1259
     38 H11        -0.5228   -2.4453   -1.9194 H         1 <0>         0.3768
     39 H12        -8.7198   -0.0110    0.9027 H         1 <0>         0.1379
     40 H13        -9.1552   -5.2080    3.5592 H         1 <0>         0.1207
@<TRIPOS>BOND
     1    1    2 1
     2    1   28 1
     3    1   29 1
     4    1   30 1
     5    2    3 1
     6    2    4 1
     7    2   31 1
     8    3   32 1
     9    3   33 1
    10    3   34 1
    11    4    9 ar
    12    4    5 ar
    13    5    6 ar
    14    5   35 1
    15    6    7 ar
    16    6   11 1
    17    7    8 ar
    18    7   36 1
    19    8    9 ar
    20    8   37 1
    21    9   10 1
    22   10   38 1
    23   11   12 1
    24   12   17 ar
    25   12   13 ar
    26   13   14 ar
    27   13   27 1
    28   14   15 ar
    29   14   39 1
    30   15   22 ar
    31   15   16 ar
    32   16   17 ar
    33   16   19 ar
    34   17   18 1
    35   19   20 ar
    36   19   26 1
    37   20   21 ar
    38   20   40 1
    39   21   22 ar
    40   21   23 1
    41   23   24 2
    42   23   25 1
@<TRIPOS>MOLECULE
CHEMBL123920
   50    54     0     0     0
SMALL
USER_CHARGES

@<TRIPOS>ATOM
      1 C1          0.7642   -0.7129   -0.8569 C.ar      1 <0>        -0.1302
      2 C2          1.6036    0.3875   -0.7476 C.ar      1 <0>        -0.0885
      3 C3          2.9483    0.2234   -0.4982 C.ar      1 <0>        -0.1228
      4 C4          3.4730   -1.0569   -0.3535 C.ar      1 <0>         0.0940
      5 C5          2.6182   -2.1686   -0.4646 C.ar      1 <0>        -0.0900
      6 C6          1.2583   -1.9791   -0.7183 C.ar      1 <0>        -0.0718
      7 C7          3.4620   -3.3495   -0.2661 C.2       1 <0>        -0.1528
      8 C8          4.7123   -2.9077   -0.0574 C.2       1 <0>         0.0429
      9 N1          4.7382   -1.5405   -0.1060 N.pl3     1 <0>        -0.8289
     10 S1          6.0897   -0.6066    0.1024 S.o2      1 <0>         2.6814
     11 O1          5.7462    0.4004    1.0443 O.2       1 <0>        -0.9236
     12 O2          7.1745   -1.5017    0.3057 O.2       1 <0>        -0.9099
     13 C9          6.3951    0.2161   -1.4255 C.ar      1 <0>        -0.6690
     14 C10         6.3034    1.5925   -1.4992 C.ar      1 <0>        -0.0226
     15 C11         6.5439    2.2401   -2.7020 C.ar      1 <0>         0.1002
     16 C12         6.8765    1.5053   -3.8311 C.ar      1 <0>        -0.1133
     17 C13         6.9680    0.1294   -3.7571 C.ar      1 <0>        -0.1167
     18 C14         6.7331   -0.5178   -2.5527 C.ar      1 <0>         0.1862
     19 O3          6.8288   -1.8722   -2.4787 O.3       1 <0>        -0.4834
     20 O4          6.4532    3.5947   -2.7748 O.3       1 <0>        -0.2312
     21 C15         6.6972    4.1872   -3.9739 C.ar      1 <0>         0.1003
     22 C16         7.9877    4.5777   -4.3054 C.ar      1 <0>        -0.0247
     23 C17         8.2360    5.1794   -5.5240 C.ar      1 <0>        -0.0787
     24 C18         7.1944    5.3937   -6.4176 C.ar      1 <0>         0.1894
     25 C19         5.9035    5.0030   -6.0857 C.ar      1 <0>        -0.0736
     26 C20         5.6567    4.3965   -4.8691 C.ar      1 <0>        -0.0217
     27 Cl1         4.0444    3.9022   -4.4570 Cl        1 <0>        -0.0151
     28 N2          7.4457    6.0040   -7.6527 N.am      1 <0>        -0.4051
     29 C21         6.6735    7.0287   -8.0559 C.2       1 <0>         0.6844
     30 O5          5.7665    7.4118   -7.3425 O.2       1 <0>        -0.5099
     31 N3          6.8899    7.6369   -9.2372 N.am      1 <0>        -0.6530
     32 H1          6.3241    8.3748   -9.5133 H         1 <0>         0.4405
     33 C22         7.8935    7.2210  -10.0372 C.2       1 <0>         0.5163
     34 O6          8.0957    7.7666  -11.1063 O.2       1 <0>        -0.4647
     35 C23         8.7373    6.1048   -9.6029 C.2       1 <0>         0.0708
     36 N4          8.5009    5.5433   -8.4489 N.2       1 <0>        -0.1692
     37 Cl2         9.2894    4.3103   -3.1883 Cl        1 <0>        -0.0150
     38 H2         -0.2886   -0.5666   -1.0486 H         1 <0>         0.1294
     39 H3          1.1982    1.3823   -0.8597 H         1 <0>         0.1330
     40 H4          3.5932    1.0858   -0.4156 H         1 <0>         0.1270
     41 H5          0.5993   -2.8304   -0.8043 H         1 <0>         0.1296
     42 H6          3.1393   -4.3800   -0.2840 H         1 <0>         0.1602
     43 H7          5.5707   -3.5381    0.1220 H         1 <0>         0.1940
     44 H8          6.0442    2.1643   -0.6204 H         1 <0>         0.1628
     45 H9          7.0633    2.0094   -4.7677 H         1 <0>         0.1402
     46 H10         7.2269   -0.4426   -4.6359 H         1 <0>         0.1502
     47 H11         6.0013   -2.3358   -2.6669 H         1 <0>         0.3992
     48 H12         9.2397    5.4834   -5.7817 H         1 <0>         0.1608
     49 H13         5.0933    5.1698   -6.7802 H         1 <0>         0.1583
     50 H14         9.5465    5.7549  -10.2267 H         1 <0>         0.2344
@<TRIPOS>BOND
     1    1    6 ar
     2    1    2 ar
     3    1   38 1
     4    2    3 ar
     5    2   39 1
     6    3    4 ar
     7    3   40 1
     8    4    9 1
     9    4    5 ar
    10    5    6 ar
    11    5    7 1
    12    6   41 1
    13    7    8 2
    14    7   42 1
    15    8    9 1
    16    8   43 1
    17    9   10 1
    18   10   11 2
    19   10   12 2
    20   10   13 1
    21   13   18 ar
    22   13   14 ar
    23   14   15 ar
    24   14   44 1
    25   15   16 ar
    26   15   20 1
    27   16   17 ar
    28   16   45 1
    29   17   18 ar
    30   17   46 1
    31   18   19 1
    32   19   47 1
    33   20   21 1
    34   21   26 ar
    35   21   22 ar
    36   22   23 ar
    37   22   37 1
    38   23   24 ar
    39   23   48 1
    40   24   25 ar
    41   24   28 1
    42   25   26 ar
    43   25   49 1
    44   26   27 1
    45   28   36 1
    46   28   29 am
    47   29   30 2
    48   29   31 am
    49   31   32 1
    50   31   33 am
    51   33   34 2
    52   33   35 1
    53   35   36 2
    54   35   50 1
@<TRIPOS>MOLECULE
CHEMBL123920__1
   49    53     0     0     0
SMALL
USER_CHARGES

@<TRIPOS>ATOM
      1 C1          0.7691   -0.7206   -0.8598 C.ar      1 <0>        -0.1303
      2 C2          1.6068    0.3811   -0.7502 C.ar      1 <0>        -0.0882
      3 C3          2.9516    0.2190   -0.4997 C.ar      1 <0>        -0.1210
      4 C4          3.4780   -1.0606   -0.3542 C.ar      1 <0>         0.0956
      5 C5          2.6249   -2.1735   -0.4657 C.ar      1 <0>        -0.0912
      6 C6          1.2649   -1.9860   -0.7204 C.ar      1 <0>        -0.0738
      7 C7          3.4703   -3.3531   -0.2662 C.2       1 <0>        -0.1554
      8 C8          4.7198   -2.9095   -0.0567 C.2       1 <0>         0.0441
      9 N1          4.7437   -1.5422   -0.1057 N.pl3     1 <0>        -0.8286
     10 S1          6.0938   -0.6063    0.1034 S.o2      1 <0>         2.6822
     11 O1          5.7481    0.4005    1.0448 O.2       1 <0>        -0.9258
     12 O2          7.1797   -1.4997    0.3077 O.2       1 <0>        -0.9132
     13 C9          6.3991    0.2164   -1.4245 C.ar      1 <0>        -0.6695
     14 C10         6.3054    1.5926   -1.4987 C.ar      1 <0>        -0.0290
     15 C11         6.5458    2.2402   -2.7016 C.ar      1 <0>         0.1077
     16 C12         6.8803    1.5056   -3.8301 C.ar      1 <0>        -0.1114
     17 C13         6.9738    0.1298   -3.7557 C.ar      1 <0>        -0.1158
     18 C14         6.7389   -0.5173   -2.5513 C.ar      1 <0>         0.1778
     19 O3          6.8369   -1.8715   -2.4767 O.3       1 <0>        -0.4847
     20 O4          6.4532    3.5947   -2.7748 O.3       1 <0>        -0.2292
     21 C15         6.6971    4.1871   -3.9738 C.ar      1 <0>         0.0748
     22 C16         7.9875    4.5794   -4.3045 C.ar      1 <0>        -0.0218
     23 C17         8.2358    5.1810   -5.5229 C.ar      1 <0>        -0.0907
     24 C18         7.1944    5.3936   -6.4175 C.ar      1 <0>         0.2046
     25 C19         5.9036    5.0011   -6.0863 C.ar      1 <0>        -0.0727
     26 C20         5.6569    4.3947   -4.8699 C.ar      1 <0>        -0.0187
     27 Cl1         4.0450    3.8981   -4.4587 Cl        1 <0>        -0.0313
     28 N2          7.4455    6.0036   -7.6519 N.am      1 <0>        -0.3722
     29 C21         6.6701    7.0280   -8.0504 C.2       1 <0>         0.6175
     30 O5          5.7601    7.4130   -7.3348 O.2       1 <0>        -0.5684
     31 N3          6.8898    7.6272   -9.2242 N.2       1 <0>        -0.6224
     32 C22         7.8823    7.1987   -9.9921 C.2       1 <0>         0.4330
     33 O6          8.1317    7.7831  -11.1853 O.3       1 <0>        -0.6429
     34 C23         8.6739    6.1205   -9.5396 C.2       1 <0>         0.0103
     35 N4          8.4166    5.5764   -8.3799 N.2       1 <0>        -0.2241
     36 Cl2         9.2887    4.3142   -3.1863 Cl        1 <0>        -0.0331
     37 H1         -0.2837   -0.5760   -1.0523 H         1 <0>         0.1286
     38 H2          1.2001    1.3752   -0.8628 H         1 <0>         0.1337
     39 H3          3.5952    1.0823   -0.4169 H         1 <0>         0.1285
     40 H4          0.6072   -2.8383   -0.8066 H         1 <0>         0.1282
     41 H5          3.1491   -4.3841   -0.2840 H         1 <0>         0.1587
     42 H6          5.5790   -3.5385    0.1235 H         1 <0>         0.1929
     43 H7          6.0447    2.1643   -0.6203 H         1 <0>         0.1607
     44 H8          7.0671    2.0097   -4.7668 H         1 <0>         0.1436
     45 H9          7.2338   -0.4420   -4.6342 H         1 <0>         0.1486
     46 H10         6.0104   -2.3366   -2.6651 H         1 <0>         0.3958
     47 H11         9.2393    5.4864   -5.7799 H         1 <0>         0.1560
     48 H12         5.0937    5.1665   -6.7814 H         1 <0>         0.1581
     49 H13         9.4885    5.7517  -10.1452 H         1 <0>         0.1843
@<TRIPOS>BOND
     1    1    6 ar
     2    1    2 ar
     3    1   37 1
     4    2    3 ar
     5    2   38 1
     6    3    4 ar
     7    3   39 1
     8    4    9 1
     9    4    5 ar
    10    5    6 ar
    11    5    7 1
    12    6   40 1
    13    7    8 2
    14    7   41 1
    15    8    9 1
    16    8   42 1
    17    9   10 1
    18   10   11 2
    19   10   12 2
    20   10   13 1
    21   13   18 ar
    22   13   14 ar
    23   14   15 ar
    24   14   43 1
    25   15   16 ar
    26   15   20 1
    27   16   17 ar
    28   16   44 1
    29   17   18 ar
    30   17   45 1
    31   18   19 1
    32   19   46 1
    33   20   21 1
    34   21   26 ar
    35   21   22 ar
    36   22   23 ar
    37   22   36 1
    38   23   24 ar
    39   23   47 1
    40   24   25 ar
    41   24   28 1
    42   25   26 ar
    43   25   48 1
    44   26   27 1
    45   28   35 1
    46   28   29 am
    47   29   30 2
    48   29   31 1
    49   31   32 2
    50   32   33 1
    51   32   34 1
    52   34   35 2
    53   34   49 1
@<TRIPOS>MOLECULE
CHEMBL559718
   52    53     0     0     0
SMALL
USER_CHARGES

@<TRIPOS>ATOM
      1 C1         -0.0187    1.5258    0.0104 C.3       1 <0>        -0.1548
      2 C2          0.0021   -0.0041    0.0020 C.3       1 <0>        -0.1257
      3 C3          0.7421   -0.5109    1.2415 C.3       1 <0>        -0.1207
      4 C4          0.7628   -2.0407    1.2331 C.3       1 <0>        -0.1148
      5 C5          1.5028   -2.5476    2.4727 C.3       1 <0>        -0.1040
      6 C6          1.5236   -4.0774    2.4642 C.3       1 <0>        -0.1250
      7 S1          2.4009   -4.6783    3.9339 S.3       1 <0>        -0.0526
      8 C7          2.3393   -6.4325    3.7795 C.ar      1 <0>        -0.0408
      9 C8          1.7075   -7.0112    2.6810 C.ar      1 <0>        -0.1349
     10 C9          1.6585   -8.3816    2.5591 C.ar      1 <0>         0.0396
     11 C10         2.2465   -9.1900    3.5438 C.ar      1 <0>        -0.1648
     12 C11         2.8797   -8.5973    4.6450 C.ar      1 <0>        -0.0308
     13 C12         2.9284   -7.2375    4.7547 C.ar      1 <0>        -0.0379
     14 Cl1         3.7202   -6.5075    6.1163 Cl        1 <0>        -0.0334
     15 C13         2.1983  -10.6501    3.4215 C.2       1 <0>         0.3958
     16 O1          1.6494  -11.1612    2.4678 O.2       1 <0>        -0.4262
     17 C14         2.8305  -11.5162    4.4804 C.3       1 <0>        -0.1659
     18 C15         2.6403  -12.9896    4.1146 C.3       1 <0>         0.0633
     19 N1          3.2565  -13.8339    5.1468 N.3       1 <0>        -0.5323
     20 C16         3.2818  -15.2448    4.7283 C.3       1 <0>         0.0326
     21 C17         4.1950  -16.0225    5.6779 C.3       1 <0>         0.1146
     22 N2          3.8311  -15.7419    7.0638 N.am      1 <0>        -0.7193
     23 C18         3.0996  -14.6818    7.4228 C.2       1 <0>         0.5249
     24 O2          2.8690  -14.5070    8.6006 O.2       1 <0>        -0.5502
     25 C19         2.5512  -13.6980    6.4282 C.3       1 <0>         0.0324
     26 Cl2         0.8717   -9.1069    1.1921 Cl        1 <0>        -0.0187
     27 H1          1.0039    1.9031    0.0027 H         1 <0>         0.0540
     28 H2         -0.5459    1.8868   -0.8726 H         1 <0>         0.0542
     29 H3         -0.5289    1.8773    0.9072 H         1 <0>         0.0540
     30 H4         -1.0205   -0.3814    0.0098 H         1 <0>         0.0612
     31 H5          0.5123   -0.3556   -0.8948 H         1 <0>         0.0612
     32 H6          1.7647   -0.1336    1.2338 H         1 <0>         0.0637
     33 H7          0.2319   -0.1594    2.1383 H         1 <0>         0.0636
     34 H8         -0.2598   -2.4180    1.2409 H         1 <0>         0.0658
     35 H9          1.2730   -2.3923    0.3363 H         1 <0>         0.0658
     36 H10         2.5254   -2.1703    2.4649 H         1 <0>         0.0760
     37 H11         0.9926   -2.1961    3.3695 H         1 <0>         0.0760
     38 H12         0.5010   -4.4547    2.4720 H         1 <0>         0.0932
     39 H13         2.0337   -4.4289    1.5675 H         1 <0>         0.0933
     40 H14         1.2559   -6.3852    1.9256 H         1 <0>         0.1484
     41 H15         3.3332   -9.2167    5.4046 H         1 <0>         0.1571
     42 H16         3.8953  -11.2924    4.5448 H         1 <0>         0.1137
     43 H17         2.3584  -11.3168    5.4424 H         1 <0>         0.1022
     44 H18         1.5754  -13.2134    4.0502 H         1 <0>         0.0496
     45 H19         3.1123  -13.1890    3.1526 H         1 <0>         0.0910
     46 H20         2.2736  -15.6570    4.7714 H         1 <0>         0.0496
     47 H21         3.6656  -15.3175    3.7108 H         1 <0>         0.1007
     48 H22         4.0910  -17.0904    5.4858 H         1 <0>         0.0836
     49 H23         5.2299  -15.7255    5.5085 H         1 <0>         0.0772
     50 H24         4.1333  -16.3519    7.7548 H         1 <0>         0.4027
     51 H25         2.6850  -12.6856    6.8093 H         1 <0>         0.1162
     52 H26         1.4886  -13.8892    6.2784 H         1 <0>         0.0755
@<TRIPOS>BOND
     1    1    2 1
     2    1   27 1
     3    1   28 1
     4    1   29 1
     5    2    3 1
     6    2   30 1
     7    2   31 1
     8    3    4 1
     9    3   32 1
    10    3   33 1
    11    4    5 1
    12    4   34 1
    13    4   35 1
    14    5    6 1
    15    5   36 1
    16    5   37 1
    17    6    7 1
    18    6   38 1
    19    6   39 1
    20    7    8 1
    21    8   13 ar
    22    8    9 ar
    23    9   10 ar
    24    9   40 1
    25   10   11 ar
    26   10   26 1
    27   11   12 ar
    28   11   15 1
    29   12   13 ar
    30   12   41 1
    31   13   14 1
    32   15   16 2
    33   15   17 1
    34   17   18 1
    35   17   42 1
    36   17   43 1
    37   18   19 1
    38   18   44 1
    39   18   45 1
    40   19   25 1
    41   19   20 1
    42   20   21 1
    43   20   46 1
    44   20   47 1
    45   21   22 1
    46   21   48 1
    47   21   49 1
    48   22   23 am
    49   22   50 1
    50   23   24 2
    51   23   25 1
    52   25   51 1
    53   25   52 1
@<TRIPOS>MOLECULE
CHEMBL559718__1
   53    54     0     0     0
SMALL
USER_CHARGES

@<TRIPOS>ATOM
      1 C1         -0.0187    1.5258    0.0104 C.3       1 <0>        -0.1556
      2 C2          0.0021   -0.0041    0.0020 C.3       1 <0>        -0.1255
      3 C3          0.7182   -0.4975   -1.2568 C.3       1 <0>        -0.1213
      4 C4          0.7390   -2.0273   -1.2652 C.3       1 <0>        -0.1143
      5 C5          1.4551   -2.5207   -2.5240 C.3       1 <0>        -0.1055
      6 C6          1.4758   -4.0506   -2.5324 C.3       1 <0>        -0.1276
      7 S1          2.3249   -4.6356   -4.0249 S.3       1 <0>        -0.0337
      8 C7          2.2661   -6.3913   -3.8882 C.ar      1 <0>        -0.0310
      9 C8          1.6453   -6.9820   -2.7898 C.ar      1 <0>        -0.1356
     10 C9          1.5985   -8.3535   -2.6817 C.ar      1 <0>         0.0488
     11 C10         2.1776   -9.1512   -3.6804 C.ar      1 <0>        -0.1841
     12 C11         2.7997   -8.5466   -4.7813 C.ar      1 <0>        -0.0317
     13 C12         2.8363   -7.1857   -4.8831 C.ar      1 <0>        -0.0420
     14 Cl1         3.6011   -6.4411   -6.2522 Cl        1 <0>        -0.0260
     15 C13         2.1325  -10.6125   -3.5724 C.2       1 <0>         0.4081
     16 O1          1.5938  -11.1340   -2.6184 O.2       1 <0>        -0.4191
     17 C14         2.7551  -11.4670   -4.6462 C.3       1 <0>        -0.2027
     18 C15         2.5704  -12.9443   -4.2935 C.3       1 <0>        -0.0010
     19 N1          3.1773  -13.7773   -5.3403 N.4       1 <0>        -0.3867
     20 C16         2.9095  -15.1961   -5.0580 C.3       1 <0>        -0.0217
     21 C17         3.3226  -16.0272   -6.2742 C.3       1 <0>         0.0827
     22 N2          4.6837  -15.6797   -6.6748 N.am      1 <0>        -0.7231
     23 C18         5.2873  -14.5542   -6.2762 C.2       1 <0>         0.5044
     24 O2          6.4108  -14.3252   -6.6714 O.2       1 <0>        -0.4870
     25 C19         4.6296  -13.5622   -5.3594 C.3       1 <0>        -0.0236
     26 Cl2         0.8264   -9.0937   -1.3143 Cl        1 <0>        -0.0123
     27 H1          1.0039    1.9031    0.0027 H         1 <0>         0.0545
     28 H2         -0.5459    1.8868   -0.8726 H         1 <0>         0.0545
     29 H3         -0.5289    1.8773    0.9072 H         1 <0>         0.0555
     30 H4          0.5293   -0.3651    0.8851 H         1 <0>         0.0613
     31 H5         -1.0205   -0.3814    0.0098 H         1 <0>         0.0613
     32 H6          0.1910   -0.1364   -2.1398 H         1 <0>         0.0643
     33 H7          1.7408   -0.1202   -1.2645 H         1 <0>         0.0643
     34 H8          1.2661   -2.3884   -0.3821 H         1 <0>         0.0663
     35 H9         -0.2836   -2.4046   -1.2575 H         1 <0>         0.0662
     36 H10         0.9279   -2.1597   -3.4071 H         1 <0>         0.0775
     37 H11         2.4777   -2.1435   -2.5317 H         1 <0>         0.0775
     38 H12         2.0030   -4.4117   -1.6494 H         1 <0>         0.0959
     39 H13         0.4533   -4.4279   -2.5247 H         1 <0>         0.0958
     40 H14         1.2012   -6.3642   -2.0233 H         1 <0>         0.1529
     41 H15         3.2464   -9.1577   -5.5517 H         1 <0>         0.1515
     42 H16         2.2731  -11.2586   -5.6014 H         1 <0>         0.1277
     43 H17         3.8189  -11.2411   -4.7191 H         1 <0>         0.1249
     44 H18         3.0524  -13.1528   -3.3383 H         1 <0>         0.1440
     45 H19         1.5066  -13.1703   -4.2206 H         1 <0>         0.1479
     46 H20         3.4857  -15.5106   -4.1879 H         1 <0>         0.1432
     47 H21         1.8460  -15.3356   -4.8644 H         1 <0>         0.1574
     48 H22         3.2792  -17.0864   -6.0206 H         1 <0>         0.1299
     49 H23         2.6396  -15.8256   -7.0995 H         1 <0>         0.1012
     50 H24         5.1693  -16.2892   -7.2524 H         1 <0>         0.4278
     51 H25         4.8406  -12.5517   -5.7093 H         1 <0>         0.1671
     52 H26         5.0262  -13.6837   -4.3514 H         1 <0>         0.1664
     53 H27         2.7873  -13.5300   -6.2374 H         1 <0>         0.4304
@<TRIPOS>BOND
     1    1    2 1
     2    1   27 1
     3    1   28 1
     4    1   29 1
     5    2    3 1
     6    2   30 1
     7    2   31 1
     8    3    4 1
     9    3   32 1
    10    3   33 1
    11    4    5 1
    12    4   34 1
    13    4   35 1
    14    5    6 1
    15    5   36 1
    16    5   37 1
    17    6    7 1
    18    6   38 1
    19    6   39 1
    20    7    8 1
    21    8   13 ar
    22    8    9 ar
    23    9   10 ar
    24    9   40 1
    25   10   11 ar
    26   10   26 1
    27   11   12 ar
    28   11   15 1
    29   12   13 ar
    30   12   41 1
    31   13   14 1
    32   15   16 2
    33   15   17 1
    34   17   18 1
    35   17   42 1
    36   17   43 1
    37   18   19 1
    38   18   44 1
    39   18   45 1
    40   19   25 1
    41   19   20 1
    42   19   53 1
    43   20   21 1
    44   20   46 1
    45   20   47 1
    46   21   22 1
    47   21   48 1
    48   21   49 1
    49   22   23 am
    50   22   50 1
    51   23   24 2
    52   23   25 1
    53   25   51 1
    54   25   52 1
@<TRIPOS>MOLECULE
CHEMBL125317
   61    66     0     0     0
SMALL
USER_CHARGES

@<TRIPOS>ATOM
      1 C1         -0.1112    1.2061    0.9653 C.ar      1 <0>        -0.1204
      2 C2          1.0271    1.8220    1.4482 C.ar      1 <0>        -0.1192
      3 C3          2.2353    1.1413    1.4523 C.ar      1 <0>         0.1837
      4 C4          2.3012   -0.1581    0.9708 C.ar      1 <0>        -0.6731
      5 C5          1.1635   -0.7739    0.4875 C.ar      1 <0>        -0.0242
      6 C6         -0.0456   -0.0933    0.4843 C.ar      1 <0>         0.0964
      7 O1         -1.1659   -0.6998    0.0093 O.3       1 <0>        -0.2335
      8 C7         -2.3285    0.0048    0.0248 C.ar      1 <0>         0.1035
      9 C8         -3.1590   -0.0507    1.1362 C.ar      1 <0>        -0.0255
     10 C9         -4.3404    0.6652    1.1522 C.ar      1 <0>        -0.0789
     11 C10        -4.6975    1.4405    0.0565 C.ar      1 <0>         0.1874
     12 C11        -3.8665    1.4958   -1.0552 C.ar      1 <0>        -0.0735
     13 C12        -2.6824    0.7842   -1.0684 C.ar      1 <0>        -0.0223
     14 Cl1        -1.6404    0.8589   -2.4548 Cl        1 <0>        -0.0153
     15 N1         -5.8953    2.1659    0.0723 N.am      1 <0>        -0.4045
     16 C13        -6.7346    2.0840   -0.9754 C.2       1 <0>         0.6842
     17 O2         -6.4421    1.3811   -1.9234 O.2       1 <0>        -0.5099
     18 N2         -7.8939    2.7682   -0.9901 N.am      1 <0>        -0.6530
     19 H1         -8.4885    2.6980   -1.7533 H         1 <0>         0.4403
     20 C14        -8.2295    3.5510    0.0561 C.2       1 <0>         0.5165
     21 O3         -9.2764    4.1720    0.0502 O.2       1 <0>        -0.4654
     22 C15        -7.3185    3.6442    1.1997 C.2       1 <0>         0.0699
     23 N3         -6.2060    2.9623    1.1809 N.2       1 <0>        -0.1688
     24 Cl2        -2.7129   -1.0201    2.5055 Cl        1 <0>        -0.0162
     25 S1          3.8365   -1.0226    0.9755 S.o2      1 <0>         2.7196
     26 O4          4.3874   -0.8649    2.2758 O.2       1 <0>        -0.9469
     27 O5          3.5855   -2.2992    0.4042 O.2       1 <0>        -0.9499
     28 N4          4.8488   -0.2283   -0.0669 N.pl3     1 <0>        -1.0045
     29 C16         5.0294   -0.4553   -1.5212 C.3       1 <0>         0.1536
     30 C17         6.5571   -0.3555   -1.7356 C.3       1 <0>        -0.1268
     31 C18         7.0601    0.5277   -0.5745 C.3       1 <0>        -0.1276
     32 C19         5.7846    0.8827    0.2317 C.3       1 <0>         0.1611
     33 C20         5.1824    2.1616   -0.3717 C.3       1 <0>        -0.1318
     34 C21         5.1128    2.0074   -1.8932 C.3       1 <0>         0.2649
     35 C22         4.3723    0.7257   -2.2531 C.3       1 <0>        -0.1509
     36 O6          6.4449    1.9637   -2.4300 O.3       1 <0>        -0.3515
     37 C23         6.3579    2.6649   -3.6940 C.3       1 <0>         0.0028
     38 C24         5.3342    3.7804   -3.3657 C.3       1 <0>         0.0210
     39 O7          4.4225    3.1296   -2.4575 O.3       1 <0>        -0.3777
     40 O8          3.3557    1.7477    1.9277 O.3       1 <0>        -0.4931
     41 H2         -1.0530    1.7347    0.9663 H         1 <0>         0.1357
     42 H3          0.9761    2.8339    1.8224 H         1 <0>         0.1454
     43 H4          1.2149   -1.7852    0.1121 H         1 <0>         0.1590
     44 H5         -4.9866    0.6218    2.0166 H         1 <0>         0.1602
     45 H6         -4.1439    2.0986   -1.9073 H         1 <0>         0.1576
     46 H7         -7.5663    4.2646    2.0482 H         1 <0>         0.2342
     47 H8          4.6219   -1.4140   -1.8419 H         1 <0>         0.1103
     48 H9          7.0129   -1.3443   -1.6853 H         1 <0>         0.0657
     49 H10         6.7760    0.1161   -2.6936 H         1 <0>         0.1000
     50 H11         7.7637   -0.0265    0.0467 H         1 <0>         0.0677
     51 H12         7.5262    1.4340   -0.9613 H         1 <0>         0.1006
     52 H13         5.9839    0.9774    1.2991 H         1 <0>         0.1120
     53 H14         4.1792    2.3154    0.0258 H         1 <0>         0.1000
     54 H15         5.8115    3.0153   -0.1197 H         1 <0>         0.0830
     55 H16         4.4296    0.5653   -3.3297 H         1 <0>         0.0817
     56 H17         3.3286    0.8081   -1.9497 H         1 <0>         0.0818
     57 H18         7.3225    3.0900   -3.9715 H         1 <0>         0.1087
     58 H19         5.9819    2.0090   -4.4791 H         1 <0>         0.0751
     59 H20         5.8256    4.6234   -2.8799 H         1 <0>         0.0759
     60 H21         4.8144    4.1037   -4.2675 H         1 <0>         0.0971
     61 H22         3.5034    1.6148    2.8741 H         1 <0>         0.4077
@<TRIPOS>BOND
     1    1    6 ar
     2    1    2 ar
     3    1   41 1
     4    2    3 ar
     5    2   42 1
     6    3    4 ar
     7    3   40 1
     8    4    5 ar
     9    4   25 1
    10    5    6 ar
    11    5   43 1
    12    6    7 1
    13    7    8 1
    14    8   13 ar
    15    8    9 ar
    16    9   10 ar
    17    9   24 1
    18   10   11 ar
    19   10   44 1
    20   11   12 ar
    21   11   15 1
    22   12   13 ar
    23   12   45 1
    24   13   14 1
    25   15   23 1
    26   15   16 am
    27   16   17 2
    28   16   18 am
    29   18   19 1
    30   18   20 am
    31   20   21 2
    32   20   22 1
    33   22   23 2
    34   22   46 1
    35   25   26 2
    36   25   27 2
    37   25   28 1
    38   28   32 1
    39   28   29 1
    40   29   35 1
    41   29   30 1
    42   29   47 1
    43   30   31 1
    44   30   48 1
    45   30   49 1
    46   31   32 1
    47   31   50 1
    48   31   51 1
    49   32   33 1
    50   32   52 1
    51   33   34 1
    52   33   53 1
    53   33   54 1
    54   34   39 1
    55   34   35 1
    56   34   36 1
    57   35   55 1
    58   35   56 1
    59   36   37 1
    60   37   38 1
    61   37   57 1
    62   37   58 1
    63   38   39 1
    64   38   59 1
    65   38   60 1
    66   40   61 1
@<TRIPOS>MOLECULE
CHEMBL125317__1
   60    65     0     0     0
SMALL
USER_CHARGES

@<TRIPOS>ATOM
      1 C1         -0.1120    1.2048    0.9687 C.ar      1 <0>        -0.1186
      2 C2          1.0259    1.8200    1.4535 C.ar      1 <0>        -0.1182
      3 C3          2.2342    1.1392    1.4576 C.ar      1 <0>         0.1754
      4 C4          2.3004   -0.1595    0.9744 C.ar      1 <0>        -0.6738
      5 C5          1.1630   -0.7748    0.4897 C.ar      1 <0>        -0.0303
      6 C6         -0.0460   -0.0939    0.4859 C.ar      1 <0>         0.1040
      7 O1         -1.1658   -0.6997    0.0091 O.3       1 <0>        -0.2317
      8 C7         -2.3283    0.0048    0.0247 C.ar      1 <0>         0.0782
      9 C8         -3.1598   -0.0522    1.1354 C.ar      1 <0>        -0.0226
     10 C9         -4.3412    0.6636    1.1514 C.ar      1 <0>        -0.0909
     11 C10        -4.6972    1.4408    0.0565 C.ar      1 <0>         0.2027
     12 C11        -3.8649    1.4980   -1.0544 C.ar      1 <0>        -0.0725
     13 C12        -2.6813    0.7858   -1.0679 C.ar      1 <0>        -0.0193
     14 Cl1        -1.6383    0.8620   -2.4536 Cl        1 <0>        -0.0315
     15 N1         -5.8943    2.1658    0.0722 N.am      1 <0>        -0.3718
     16 C13        -6.7300    2.0806   -0.9784 C.2       1 <0>         0.6175
     17 O2         -6.4369    1.3754   -1.9298 O.2       1 <0>        -0.5684
     18 N2         -7.8789    2.7626   -0.9872 N.2       1 <0>        -0.6227
     19 C14        -8.1852    3.5249    0.0537 C.2       1 <0>         0.4331
     20 O3         -9.3398    4.2275    0.0769 O.3       1 <0>        -0.6436
     21 C15        -7.2824    3.5885    1.1376 C.2       1 <0>         0.0092
     22 N3         -6.1753    2.8960    1.0937 N.2       1 <0>        -0.2235
     23 Cl2        -2.7149   -1.0236    2.5037 Cl        1 <0>        -0.0343
     24 S1          3.8358   -1.0238    0.9786 S.o2      1 <0>         2.7214
     25 O4          4.3861   -0.8679    2.2794 O.2       1 <0>        -0.9502
     26 O5          3.5852   -2.2997    0.4054 O.2       1 <0>        -0.9521
     27 N4          4.8486   -0.2279   -0.0622 N.pl3     1 <0>        -1.0049
     28 C16         5.0299   -0.4529   -1.5167 C.3       1 <0>         0.1538
     29 C17         6.5577   -0.3526   -1.7301 C.3       1 <0>        -0.1262
     30 C18         7.0600    0.5290   -0.5676 C.3       1 <0>        -0.1271
     31 C19         5.7840    0.8827    0.2384 C.3       1 <0>         0.1616
     32 C20         5.1820    2.1624   -0.3635 C.3       1 <0>        -0.1324
     33 C21         5.1132    2.0103   -1.8852 C.3       1 <0>         0.2653
     34 C22         4.3730    0.7291   -2.2472 C.3       1 <0>        -0.1520
     35 O6          6.4455    1.9676   -2.4214 O.3       1 <0>        -0.3526
     36 C23         6.3592    2.6705   -3.6844 C.3       1 <0>         0.0030
     37 C24         5.3351    3.7854   -3.3551 C.3       1 <0>         0.0208
     38 O7          4.4231    3.1332   -2.4483 O.3       1 <0>        -0.3755
     39 O8          3.3541    1.7450    1.9349 O.3       1 <0>        -0.4944
     40 H1         -1.0538    1.7333    0.9696 H         1 <0>         0.1390
     41 H2          0.9746    2.8313    1.8290 H         1 <0>         0.1438
     42 H3          1.2147   -1.7857    0.1132 H         1 <0>         0.1569
     43 H4         -4.9882    0.6186    2.0150 H         1 <0>         0.1554
     44 H5         -4.1415    2.1020   -1.9060 H         1 <0>         0.1574
     45 H6         -7.5070    4.2019    1.9976 H         1 <0>         0.1841
     46 H7          4.6226   -1.4112   -1.8389 H         1 <0>         0.1101
     47 H8          7.0136   -1.3415   -1.6811 H         1 <0>         0.0643
     48 H9          6.7770    0.1203   -2.6874 H         1 <0>         0.0993
     49 H10         7.7633   -0.0260    0.0532 H         1 <0>         0.0662
     50 H11         7.5261    1.4359   -0.9529 H         1 <0>         0.0997
     51 H12         5.9828    0.9760    1.3061 H         1 <0>         0.1113
     52 H13         4.1786    2.3155    0.0338 H         1 <0>         0.1020
     53 H14         5.8109    3.0158   -0.1100 H         1 <0>         0.0818
     54 H15         4.4308    0.5702   -3.3241 H         1 <0>         0.0813
     55 H16         3.3292    0.8109   -1.9442 H         1 <0>         0.0842
     56 H17         7.3238    3.0961   -3.9609 H         1 <0>         0.1072
     57 H18         5.9836    2.0156   -4.4706 H         1 <0>         0.0747
     58 H19         5.8262    4.6278   -2.8679 H         1 <0>         0.0750
     59 H20         4.8157    4.1099   -4.2567 H         1 <0>         0.0971
     60 H21         3.5010    1.6107    2.8812 H         1 <0>         0.4044
@<TRIPOS>BOND
     1    1    6 ar
     2    1    2 ar
     3    1   40 1
     4    2    3 ar
     5    2   41 1
     6    3    4 ar
     7    3   39 1
     8    4    5 ar
     9    4   24 1
    10    5    6 ar
    11    5   42 1
    12    6    7 1
    13    7    8 1
    14    8   13 ar
    15    8    9 ar
    16    9   10 ar
    17    9   23 1
    18   10   11 ar
    19   10   43 1
    20   11   12 ar
    21   11   15 1
    22   12   13 ar
    23   12   44 1
    24   13   14 1
    25   15   22 1
    26   15   16 am
    27   16   17 2
    28   16   18 1
    29   18   19 2
    30   19   20 1
    31   19   21 1
    32   21   22 2
    33   21   45 1
    34   24   25 2
    35   24   26 2
    36   24   27 1
    37   27   31 1
    38   27   28 1
    39   28   34 1
    40   28   29 1
    41   28   46 1
    42   29   30 1
    43   29   47 1
    44   29   48 1
    45   30   31 1
    46   30   49 1
    47   30   50 1
    48   31   32 1
    49   31   51 1
    50   32   33 1
    51   32   52 1
    52   32   53 1
    53   33   38 1
    54   33   34 1
    55   33   35 1
    56   34   54 1
    57   34   55 1
    58   35   36 1
    59   36   37 1
    60   36   56 1
    61   36   57 1
    62   37   38 1
    63   37   58 1
    64   37   59 1
    65   39   60 1
@<TRIPOS>MOLECULE
CHEMBL125317__2
   60    65     0     0     0
SMALL
USER_CHARGES

@<TRIPOS>ATOM
      1 C1         -0.1112    1.2061    0.9653 C.ar      1 <0>        -0.0896
      2 C2          1.0271    1.8220    1.4482 C.ar      1 <0>        -0.2186
      3 C3          2.2353    1.1413    1.4523 C.ar      1 <0>         0.3342
      4 C4          2.3012   -0.1581    0.9708 C.ar      1 <0>        -0.7956
      5 C5          1.1635   -0.7739    0.4875 C.ar      1 <0>         0.0150
      6 C6         -0.0456   -0.0933    0.4843 C.ar      1 <0>        -0.0388
      7 O1         -1.1659   -0.6998    0.0093 O.3       1 <0>        -0.2515
      8 C7         -2.3285    0.0048    0.0248 C.ar      1 <0>         0.1437
      9 C8         -3.1590   -0.0507    1.1362 C.ar      1 <0>        -0.0345
     10 C9         -4.3404    0.6652    1.1522 C.ar      1 <0>        -0.0791
     11 C10        -4.6975    1.4405    0.0565 C.ar      1 <0>         0.1602
     12 C11        -3.8665    1.4958   -1.0552 C.ar      1 <0>        -0.0734
     13 C12        -2.6824    0.7842   -1.0684 C.ar      1 <0>        -0.0310
     14 Cl1        -1.6404    0.8589   -2.4548 Cl        1 <0>        -0.0212
     15 N1         -5.8953    2.1659    0.0723 N.am      1 <0>        -0.3953
     16 C13        -6.7346    2.0840   -0.9754 C.2       1 <0>         0.6817
     17 O2         -6.4421    1.3811   -1.9234 O.2       1 <0>        -0.5104
     18 N2         -7.8939    2.7682   -0.9901 N.am      1 <0>        -0.6538
     19 H1         -8.4885    2.6980   -1.7533 H         1 <0>         0.4374
     20 C14        -8.2295    3.5510    0.0561 C.2       1 <0>         0.5194
     21 O3         -9.2764    4.1720    0.0502 O.2       1 <0>        -0.4764
     22 C15        -7.3185    3.6442    1.1997 C.2       1 <0>         0.0551
     23 N3         -6.2060    2.9623    1.1809 N.2       1 <0>        -0.1603
     24 Cl2        -2.7129   -1.0201    2.5055 Cl        1 <0>        -0.0213
     25 S1          3.8365   -1.0226    0.9755 S.o2      1 <0>         2.7310
     26 O4          4.3874   -0.8649    2.2758 O.2       1 <0>        -0.9596
     27 O5          3.5855   -2.2992    0.4042 O.2       1 <0>        -0.9951
     28 N4          4.8488   -0.2283   -0.0669 N.pl3     1 <0>        -1.0038
     29 C16         5.0294   -0.4553   -1.5212 C.3       1 <0>         0.1545
     30 C17         6.5571   -0.3555   -1.7356 C.3       1 <0>        -0.1252
     31 C18         7.0601    0.5277   -0.5745 C.3       1 <0>        -0.1293
     32 C19         5.7846    0.8827    0.2317 C.3       1 <0>         0.1731
     33 C20         5.1824    2.1616   -0.3717 C.3       1 <0>        -0.1326
     34 C21         5.1128    2.0074   -1.8932 C.3       1 <0>         0.2667
     35 C22         4.3723    0.7257   -2.2531 C.3       1 <0>        -0.1476
     36 O6          6.4449    1.9637   -2.4300 O.3       1 <0>        -0.3523
     37 C23         6.3579    2.6649   -3.6940 C.3       1 <0>         0.0022
     38 C24         5.3342    3.7804   -3.3657 C.3       1 <0>         0.0206
     39 O7          4.4225    3.1296   -2.4575 O.3       1 <0>        -0.3752
     40 O8          3.3557    1.7477    1.9277 O.3       1 <0>        -0.6806
     41 H2         -1.0530    1.7347    0.9663 H         1 <0>         0.0984
     42 H3          0.9761    2.8339    1.8224 H         1 <0>         0.1082
     43 H4          1.2149   -1.7852    0.1121 H         1 <0>         0.1222
     44 H5         -4.9866    0.6218    2.0166 H         1 <0>         0.1522
     45 H6         -4.1439    2.0986   -1.9073 H         1 <0>         0.1497
     46 H7         -7.5663    4.2646    2.0482 H         1 <0>         0.2310
     47 H8          4.6219   -1.4140   -1.8419 H         1 <0>         0.1025
     48 H9          7.0129   -1.3443   -1.6853 H         1 <0>         0.0577
     49 H10         6.7760    0.1161   -2.6936 H         1 <0>         0.0926
     50 H11         7.7637   -0.0265    0.0467 H         1 <0>         0.0598
     51 H12         7.5262    1.4340   -0.9613 H         1 <0>         0.0931
     52 H13         5.9839    0.9774    1.2991 H         1 <0>         0.1092
     53 H14         4.1792    2.3154    0.0258 H         1 <0>         0.1181
     54 H15         5.8115    3.0153   -0.1197 H         1 <0>         0.0695
     55 H16         4.4296    0.5653   -3.3297 H         1 <0>         0.0705
     56 H17         3.3286    0.8081   -1.9497 H         1 <0>         0.0869
     57 H18         7.3225    3.0900   -3.9715 H         1 <0>         0.1021
     58 H19         5.9819    2.0090   -4.4791 H         1 <0>         0.0706
     59 H20         5.8256    4.6234   -2.8799 H         1 <0>         0.0714
     60 H21         4.8144    4.1037   -4.2675 H         1 <0>         0.0914
@<TRIPOS>BOND
     1    1    6 ar
     2    1    2 ar
     3    1   41 1
     4    2    3 ar
     5    2   42 1
     6    3    4 ar
     7    3   40 1
     8    4    5 ar
     9    4   25 1
    10    5    6 ar
    11    5   43 1
    12    6    7 1
    13    7    8 1
    14    8   13 ar
    15    8    9 ar
    16    9   10 ar
    17    9   24 1
    18   10   11 ar
    19   10   44 1
    20   11   12 ar
    21   11   15 1
    22   12   13 ar
    23   12   45 1
    24   13   14 1
    25   15   23 1
    26   15   16 am
    27   16   17 2
    28   16   18 am
    29   18   19 1
    30   18   20 am
    31   20   21 2
    32   20   22 1
    33   22   23 2
    34   22   46 1
    35   25   26 2
    36   25   27 2
    37   25   28 1
    38   28   32 1
    39   28   29 1
    40   29   35 1
    41   29   30 1
    42   29   47 1
    43   30   31 1
    44   30   48 1
    45   30   49 1
    46   31   32 1
    47   31   50 1
    48   31   51 1
    49   32   33 1
    50   32   52 1
    51   33   34 1
    52   33   53 1
    53   33   54 1
    54   34   39 1
    55   34   35 1
    56   34   36 1
    57   35   55 1
    58   35   56 1
    59   36   37 1
    60   37   38 1
    61   37   57 1
    62   37   58 1
    63   38   39 1
    64   38   59 1
    65   38   60 1
@<TRIPOS>MOLECULE
CHEMBL289343
   41    42     0     0     0
SMALL
USER_CHARGES

@<TRIPOS>ATOM
      1 C1         -0.0187    1.5258    0.0104 C.3       1 <0>        -0.1433
      2 C2          0.0021   -0.0041    0.0020 C.3       1 <0>        -0.0544
      3 C3         -1.4333   -0.5336    0.0129 C.3       1 <0>        -0.1450
      4 C4          0.7074   -0.4901   -1.2379 C.ar      1 <0>        -0.0646
      5 C5          0.2223   -0.1513   -2.4861 C.ar      1 <0>        -0.1231
      6 C6          0.8718   -0.5983   -3.6273 C.ar      1 <0>         0.1276
      7 C7          2.0088   -1.3856   -3.5149 C.ar      1 <0>        -0.1758
      8 C8          2.4936   -1.7241   -2.2670 C.ar      1 <0>        -0.0988
      9 C9          1.8469   -1.2726   -1.1257 C.ar      1 <0>         0.0709
     10 O1          2.3273   -1.6017    0.1031 O.3       1 <0>        -0.4930
     11 O2          0.3942   -0.2653   -4.8559 O.3       1 <0>        -0.2408
     12 C10         1.0623   -0.7252   -5.9464 C.ar      1 <0>         0.1142
     13 C11         2.0914    0.0248   -6.4989 C.ar      1 <0>        -0.0915
     14 C12         2.7691   -0.4456   -7.6081 C.ar      1 <0>        -0.0676
     15 C13         2.4229   -1.6618   -8.1672 C.ar      1 <0>        -0.0438
     16 C14         1.3979   -2.4108   -7.6193 C.ar      1 <0>        -0.0678
     17 C15         0.7207   -1.9485   -6.5064 C.ar      1 <0>        -0.0914
     18 Br1        -0.6749   -2.9779   -5.7524 Br        1 <0>        -0.0266
     19 C16         3.1637   -2.1718   -9.3764 C.3       1 <0>        -0.0623
     20 C17         4.3615   -3.0097   -8.9247 C.3       1 <0>        -0.1774
     21 C18         5.1023   -3.5197  -10.1339 C.2       1 <0>         0.4907
     22 O3          4.7087   -3.2390  -11.2532 O.co2     1 <0>        -0.6966
     23 O4          6.0952   -4.2130   -9.9929 O.co2     1 <0>        -0.7020
     24 Br2         2.5653    1.6886   -5.7354 Br        1 <0>        -0.0255
     25 H1          1.0039    1.9031    0.0027 H         1 <0>         0.0567
     26 H2         -0.5459    1.8868   -0.8726 H         1 <0>         0.0575
     27 H3         -0.5289    1.8773    0.9072 H         1 <0>         0.0580
     28 H4          0.5293   -0.3651    0.8851 H         1 <0>         0.0866
     29 H5         -1.9605   -0.1726   -0.8702 H         1 <0>         0.0583
     30 H6         -1.4185   -1.6235    0.0069 H         1 <0>         0.0546
     31 H7         -1.9435   -0.1821    0.9097 H         1 <0>         0.0584
     32 H8         -0.6629    0.4612   -2.5735 H         1 <0>         0.1349
     33 H9          2.5144   -1.7339   -4.4034 H         1 <0>         0.1286
     34 H10         3.3785   -2.3369   -2.1795 H         1 <0>         0.1324
     35 H11         1.9661   -2.4251    0.4591 H         1 <0>         0.3838
     36 H12         3.5697    0.1377   -8.0386 H         1 <0>         0.1482
     37 H13         1.1294   -3.3603   -8.0583 H         1 <0>         0.1481
     38 H14         2.4958   -2.7877   -9.9786 H         1 <0>         0.0812
     39 H15         3.5141   -1.3278   -9.9705 H         1 <0>         0.0812
     40 H16         5.0294   -2.3938   -8.3225 H         1 <0>         0.0597
     41 H17         4.0111   -3.8538   -8.3306 H         1 <0>         0.0595
@<TRIPOS>BOND
     1    1    2 1
     2    1   25 1
     3    1   26 1
     4    1   27 1
     5    2    3 1
     6    2    4 1
     7    2   28 1
     8    3   29 1
     9    3   30 1
    10    3   31 1
    11    4    9 ar
    12    4    5 ar
    13    5    6 ar
    14    5   32 1
    15    6    7 ar
    16    6   11 1
    17    7    8 ar
    18    7   33 1
    19    8    9 ar
    20    8   34 1
    21    9   10 1
    22   10   35 1
    23   11   12 1
    24   12   17 ar
    25   12   13 ar
    26   13   14 ar
    27   13   24 1
    28   14   15 ar
    29   14   36 1
    30   15   16 ar
    31   15   19 1
    32   16   17 ar
    33   16   37 1
    34   17   18 1
    35   19   20 1
    36   19   38 1
    37   19   39 1
    38   20   21 1
    39   20   40 1
    40   20   41 1
    41   21   22 2
    42   21   23 1
@<TRIPOS>MOLECULE
CHEMBL196642
   50    52     0     0     0
SMALL
USER_CHARGES

@<TRIPOS>ATOM
      1 C1         -0.0710    1.5889    0.0708 C.3       1 <0>        -0.1437
      2 C2         -0.0392    0.0595    0.0432 C.3       1 <0>        -0.0445
      3 C3          0.7047   -0.4575    1.2762 C.3       1 <0>        -0.1471
      4 C4         -1.4493   -0.4724    0.0476 C.ar      1 <0>        -0.1109
      5 C5         -1.9332   -1.2001   -1.0524 C.ar      1 <0>        -0.0087
      6 C6         -1.1217   -1.4479   -2.1736 C.ar      1 <0>        -0.1157
      7 C7         -1.6127   -2.1559   -3.2284 C.ar      1 <0>        -0.1004
      8 C8         -2.9138   -2.6460   -3.2221 C.ar      1 <0>        -0.1016
      9 C9         -3.7466   -2.4253   -2.1390 C.ar      1 <0>        -0.0132
     10 C10        -3.2610   -1.6922   -1.0295 C.ar      1 <0>        -0.0520
     11 C11        -4.0705   -1.4463    0.0893 C.ar      1 <0>        -0.0610
     12 C12        -3.5736   -0.7385    1.1403 C.ar      1 <0>        -0.1868
     13 C13        -2.2622   -0.2544    1.1235 C.ar      1 <0>         0.1299
     14 O1         -1.7914    0.4448    2.1893 O.3       1 <0>        -0.3077
     15 C14        -2.6885    0.6402    3.2844 C.3       1 <0>         0.0221
     16 C15        -5.1311   -2.9498   -2.1408 C.ar      1 <0>        -0.0688
     17 C16        -6.1725   -2.1743   -2.6543 C.ar      1 <0>         0.0131
     18 C17        -7.4614   -2.6662   -2.6543 C.ar      1 <0>        -0.1141
     19 C18        -7.7239   -3.9320   -2.1437 C.ar      1 <0>         0.2001
     20 C19        -6.6896   -4.7066   -1.6319 C.ar      1 <0>        -0.1472
     21 C20        -5.3975   -4.2235   -1.6343 C.ar      1 <0>         0.0104
     22 Cl1        -4.1052   -5.1950   -1.0019 Cl        1 <0>        -0.0518
     23 N1         -9.0313   -4.4269   -2.1445 N.am      1 <0>        -0.6897
     24 C21        -9.8690   -4.1159   -3.1535 C.2       1 <0>         0.5070
     25 O2         -9.4609   -3.4914   -4.1099 O.2       1 <0>        -0.4537
     26 C22       -11.3126   -4.5440   -3.0935 C.3       1 <0>        -0.2067
     27 C23       -12.0276   -4.0751   -4.3344 C.2       1 <0>         0.4938
     28 O3        -11.4212   -3.4511   -5.1884 O.co2     1 <0>        -0.6540
     29 O4        -13.2126   -4.3197   -4.4844 O.co2     1 <0>        -0.7020
     30 Cl2        -5.8460   -0.5928   -3.2912 Cl        1 <0>        -0.0457
     31 H1          0.9489    1.9736    0.0676 H         1 <0>         0.0532
     32 H2         -0.6009    1.9572   -0.8076 H         1 <0>         0.0511
     33 H3         -0.5834    1.9255    0.9720 H         1 <0>         0.0653
     34 H4          0.4733   -0.2771   -0.8580 H         1 <0>         0.0769
     35 H5          0.1922   -0.1209    2.1774 H         1 <0>         0.0722
     36 H6          0.7273   -1.5471    1.2566 H         1 <0>         0.0495
     37 H7          1.7245   -0.0728    1.2731 H         1 <0>         0.0520
     38 H8         -0.1080   -1.0760   -2.1986 H         1 <0>         0.1290
     39 H9         -0.9805   -2.3395   -4.0846 H         1 <0>         0.1250
     40 H10        -3.2786   -3.2045   -4.0715 H         1 <0>         0.1246
     41 H11        -5.0846   -1.8169    0.1165 H         1 <0>         0.1265
     42 H12        -4.1997   -0.5510    2.0000 H         1 <0>         0.1286
     43 H13        -3.5674    1.1860    2.9412 H         1 <0>         0.0546
     44 H14        -2.9940   -0.3280    3.6811 H         1 <0>         0.0541
     45 H15        -2.1883    1.2118    4.0662 H         1 <0>         0.0975
     46 H16        -8.2674   -2.0669   -3.0513 H         1 <0>         0.1560
     47 H17        -6.8972   -5.6896   -1.2355 H         1 <0>         0.1432
     48 H18        -9.3356   -4.9941   -1.4189 H         1 <0>         0.4090
     49 H19       -11.3670   -5.6309   -3.0317 H         1 <0>         0.0905
     50 H20       -11.7852   -4.1060   -2.2144 H         1 <0>         0.0917
@<TRIPOS>BOND
     1    1    2 1
     2    1   31 1
     3    1   32 1
     4    1   33 1
     5    2    3 1
     6    2    4 1
     7    2   34 1
     8    3   35 1
     9    3   36 1
    10    3   37 1
    11    4   13 ar
    12    4    5 ar
    13    5   10 ar
    14    5    6 ar
    15    6    7 ar
    16    6   38 1
    17    7    8 ar
    18    7   39 1
    19    8    9 ar
    20    8   40 1
    21    9   10 ar
    22    9   16 1
    23   10   11 ar
    24   11   12 ar
    25   11   41 1
    26   12   13 ar
    27   12   42 1
    28   13   14 1
    29   14   15 1
    30   15   43 1
    31   15   44 1
    32   15   45 1
    33   16   21 ar
    34   16   17 ar
    35   17   18 ar
    36   17   30 1
    37   18   19 ar
    38   18   46 1
    39   19   20 ar
    40   19   23 1
    41   20   21 ar
    42   20   47 1
    43   21   22 1
    44   23   24 am
    45   23   48 1
    46   24   25 2
    47   24   26 1
    48   26   27 1
    49   26   49 1
    50   26   50 1
    51   27   28 2
    52   27   29 1
@<TRIPOS>MOLECULE
CHEMBL550767
   54    55     0     0     0
SMALL
USER_CHARGES

@<TRIPOS>ATOM
      1 C1         -0.0187    1.5258    0.0104 C.3       1 <0>        -0.1551
      2 C2          0.0021   -0.0041    0.0020 C.3       1 <0>        -0.1255
      3 C3          0.7182   -0.4975   -1.2568 C.3       1 <0>        -0.1259
      4 C4          0.7390   -2.0273   -1.2652 C.3       1 <0>        -0.1121
      5 C5          1.4551   -2.5207   -2.5240 C.3       1 <0>        -0.1166
      6 C6          1.4758   -4.0506   -2.5324 C.3       1 <0>        -0.6022
      7 S1          2.3249   -4.6356   -4.0249 S.o2      1 <0>         2.4896
      8 O1          1.5554   -4.3263   -5.1788 O.2       1 <0>        -0.9265
      9 O2          3.7053   -4.3039   -3.9645 O.2       1 <0>        -0.9261
     10 C7          2.2796   -6.3934   -3.9120 C.ar      1 <0>        -0.6255
     11 C8          3.3051   -7.0689   -3.2721 C.ar      1 <0>        -0.0337
     12 C9          3.2780   -8.4436   -3.1790 C.ar      1 <0>        -0.0808
     13 C10         2.2101   -9.1579   -3.7330 C.ar      1 <0>        -0.1093
     14 C11         1.1767   -8.4683   -4.3780 C.ar      1 <0>        -0.0114
     15 C12         1.2171   -7.0902   -4.4581 C.ar      1 <0>        -0.0277
     16 Cl1        -0.1540   -9.3422   -5.0702 Cl        1 <0>        -0.0191
     17 C13         2.1737  -10.6251   -3.6385 C.2       1 <0>         0.3853
     18 O3          1.2464  -11.2409   -4.1198 O.2       1 <0>        -0.4151
     19 C14         3.2886  -11.3633   -2.9436 C.3       1 <0>        -0.1616
     20 C15         3.0086  -12.8669   -2.9855 C.3       1 <0>         0.0638
     21 N1          4.0954  -13.5865   -2.3081 N.3       1 <0>        -0.5378
     22 C16         5.3582  -13.4519   -3.0487 C.3       1 <0>         0.0111
     23 C17         6.4735  -14.1644   -2.2790 C.3       1 <0>         0.0631
     24 O4          6.1076  -15.5321   -2.0767 O.3       1 <0>        -0.3848
     25 C18         4.8826  -15.7001   -1.3579 C.3       1 <0>         0.0632
     26 C19         3.7513  -15.0031   -2.1183 C.3       1 <0>         0.0175
     27 H1          1.0039    1.9031    0.0027 H         1 <0>         0.0543
     28 H2         -0.5459    1.8868   -0.8726 H         1 <0>         0.0543
     29 H3         -0.5289    1.8773    0.9072 H         1 <0>         0.0543
     30 H4          0.5293   -0.3651    0.8851 H         1 <0>         0.0615
     31 H5         -1.0205   -0.3814    0.0098 H         1 <0>         0.0615
     32 H6          0.1910   -0.1364   -2.1398 H         1 <0>         0.0655
     33 H7          1.7408   -0.1202   -1.2645 H         1 <0>         0.0656
     34 H8          1.2661   -2.3884   -0.3821 H         1 <0>         0.0684
     35 H9         -0.2836   -2.4046   -1.2575 H         1 <0>         0.0683
     36 H10         0.9279   -2.1597   -3.4071 H         1 <0>         0.0831
     37 H11         2.4777   -2.1435   -2.5317 H         1 <0>         0.0833
     38 H12         2.0030   -4.4117   -1.6494 H         1 <0>         0.1391
     39 H13         0.4533   -4.4279   -2.5247 H         1 <0>         0.1387
     40 H14         4.1290   -6.5166   -2.8448 H         1 <0>         0.1570
     41 H15         4.0793   -8.9683   -2.6801 H         1 <0>         0.1538
     42 H16         0.4189   -6.5557   -4.9517 H         1 <0>         0.1592
     43 H17         4.2321  -11.1553   -3.4484 H         1 <0>         0.1028
     44 H18         3.3512  -11.0341   -1.9064 H         1 <0>         0.1131
     45 H19         2.0652  -13.0749   -2.4807 H         1 <0>         0.0854
     46 H20         2.9460  -13.1961   -4.0227 H         1 <0>         0.0455
     47 H21         5.2514  -13.9028   -4.0353 H         1 <0>         0.0455
     48 H22         5.6068  -12.3960   -3.1554 H         1 <0>         0.0877
     49 H23         7.3994  -14.1163   -2.8521 H         1 <0>         0.0993
     50 H24         6.6167  -13.6793   -1.3135 H         1 <0>         0.0610
     51 H25         4.6580  -16.7626   -1.2648 H         1 <0>         0.1000
     52 H26         4.9796  -15.2596   -0.3656 H         1 <0>         0.0611
     53 H27         2.8269  -15.0796   -1.5458 H         1 <0>         0.0886
     54 H28         3.6188  -15.4788   -3.0900 H         1 <0>         0.0457
@<TRIPOS>BOND
     1    1    2 1
     2    1   27 1
     3    1   28 1
     4    1   29 1
     5    2    3 1
     6    2   30 1
     7    2   31 1
     8    3    4 1
     9    3   32 1
    10    3   33 1
    11    4    5 1
    12    4   34 1
    13    4   35 1
    14    5    6 1
    15    5   36 1
    16    5   37 1
    17    6    7 1
    18    6   38 1
    19    6   39 1
    20    7    8 2
    21    7    9 2
    22    7   10 1
    23   10   15 ar
    24   10   11 ar
    25   11   12 ar
    26   11   40 1
    27   12   13 ar
    28   12   41 1
    29   13   14 ar
    30   13   17 1
    31   14   15 ar
    32   14   16 1
    33   15   42 1
    34   17   18 2
    35   17   19 1
    36   19   20 1
    37   19   43 1
    38   19   44 1
    39   20   21 1
    40   20   45 1
    41   20   46 1
    42   21   26 1
    43   21   22 1
    44   22   23 1
    45   22   47 1
    46   22   48 1
    47   23   24 1
    48   23   49 1
    49   23   50 1
    50   24   25 1
    51   25   26 1
    52   25   51 1
    53   25   52 1
    54   26   53 1
    55   26   54 1
@<TRIPOS>MOLECULE
CHEMBL550767__1
   55    56     0     0     0
SMALL
USER_CHARGES

@<TRIPOS>ATOM
      1 C1         -0.0187    1.5258    0.0104 C.3       1 <0>        -0.1561
      2 C2          0.0021   -0.0041    0.0020 C.3       1 <0>        -0.1251
      3 C3         -1.4333   -0.5336    0.0129 C.3       1 <0>        -0.1266
      4 C4         -1.4126   -2.0635    0.0045 C.3       1 <0>        -0.1113
      5 C5         -2.8479   -2.5931    0.0153 C.3       1 <0>        -0.1181
      6 C6         -2.8272   -4.1229    0.0069 C.3       1 <0>        -0.5984
      7 S1         -4.5290   -4.7508    0.0198 S.o2      1 <0>         2.4838
      8 O1         -5.1513   -4.4527    1.2620 O.2       1 <0>        -0.9201
      9 O2         -5.1749   -4.4395   -1.2071 O.2       1 <0>        -0.9217
     10 C7         -4.3645   -6.5051    0.0088 C.ar      1 <0>        -0.6141
     11 C8         -4.3060   -7.1835   -1.1970 C.ar      1 <0>        -0.0326
     12 C9         -4.1774   -8.5555   -1.2152 C.ar      1 <0>        -0.0837
     13 C10        -4.1054   -9.2640   -0.0109 C.ar      1 <0>        -0.1249
     14 C11        -4.1647   -8.5715    1.2041 C.ar      1 <0>        -0.0048
     15 C12        -4.2889   -7.1961    1.2044 C.ar      1 <0>        -0.0237
     16 Cl1        -4.0771   -9.4382    2.7057 Cl        1 <0>        -0.0114
     17 C13        -3.9686  -10.7283   -0.0214 C.2       1 <0>         0.3979
     18 O3         -3.9065  -11.3390    1.0243 O.2       1 <0>        -0.4060
     19 C14        -3.9055  -11.4698   -1.3319 C.3       1 <0>        -0.1983
     20 C15        -3.7641  -12.9693   -1.0632 C.3       1 <0>        -0.0007
     21 N1         -3.7027  -13.6921   -2.3406 N.4       1 <0>        -0.3853
     22 C16        -4.9813  -13.5441   -3.0492 C.3       1 <0>        -0.0516
     23 C17        -4.9147  -14.2978   -4.3799 C.3       1 <0>         0.0368
     24 O4         -4.6094  -15.6724   -4.1285 O.3       1 <0>        -0.3555
     25 C18        -3.3833  -15.8672   -3.4183 C.3       1 <0>         0.0362
     26 C19        -3.4471  -15.1165   -2.0858 C.3       1 <0>        -0.0433
     27 H1          1.0039    1.9031    0.0027 H         1 <0>         0.0554
     28 H2         -0.5459    1.8868   -0.8726 H         1 <0>         0.0548
     29 H3         -0.5289    1.8773    0.9072 H         1 <0>         0.0551
     30 H4          0.5123   -0.3556   -0.8948 H         1 <0>         0.0611
     31 H5          0.5293   -0.3651    0.8851 H         1 <0>         0.0615
     32 H6         -1.9435   -0.1821    0.9097 H         1 <0>         0.0665
     33 H7         -1.9605   -0.1726   -0.8702 H         1 <0>         0.0661
     34 H8         -0.9024   -2.4150   -0.8923 H         1 <0>         0.0679
     35 H9         -0.8854   -2.4246    0.8875 H         1 <0>         0.0685
     36 H10        -3.3581   -2.2415    0.9121 H         1 <0>         0.0849
     37 H11        -3.3751   -2.2320   -0.8677 H         1 <0>         0.0845
     38 H12        -2.3170   -4.4744   -0.8899 H         1 <0>         0.1387
     39 H13        -2.3000   -4.4840    0.8900 H         1 <0>         0.1393
     40 H14        -4.3616   -6.6357   -2.1261 H         1 <0>         0.1604
     41 H15        -4.1326   -9.0825   -2.1568 H         1 <0>         0.1489
     42 H16        -4.3308   -6.6591    2.1405 H         1 <0>         0.1646
     43 H17        -4.8192  -11.2866   -1.8973 H         1 <0>         0.1257
     44 H18        -3.0470  -11.1209   -1.9058 H         1 <0>         0.1273
     45 H19        -2.8504  -13.1525   -0.4978 H         1 <0>         0.1425
     46 H20        -4.6226  -13.3181   -0.4893 H         1 <0>         0.1405
     47 H21        -5.7852  -13.9550   -2.4385 H         1 <0>         0.1417
     48 H22        -5.1719  -12.4878   -3.2388 H         1 <0>         0.1424
     49 H23        -5.8765  -14.2255   -4.8877 H         1 <0>         0.1430
     50 H24        -4.1375  -13.8611   -5.0070 H         1 <0>         0.0821
     51 H25        -3.2367  -16.9308   -3.2301 H         1 <0>         0.1435
     52 H26        -2.5536  -15.4843   -4.0125 H         1 <0>         0.0821
     53 H27        -2.4986  -15.2274   -1.5602 H         1 <0>         0.1447
     54 H28        -4.2515  -15.5268   -1.4754 H         1 <0>         0.1410
     55 H29        -2.9584  -13.3126   -2.9064 H         1 <0>         0.4232
@<TRIPOS>BOND
     1    1    2 1
     2    1   27 1
     3    1   28 1
     4    1   29 1
     5    2    3 1
     6    2   30 1
     7    2   31 1
     8    3    4 1
     9    3   32 1
    10    3   33 1
    11    4    5 1
    12    4   34 1
    13    4   35 1
    14    5    6 1
    15    5   36 1
    16    5   37 1
    17    6    7 1
    18    6   38 1
    19    6   39 1
    20    7    8 2
    21    7    9 2
    22    7   10 1
    23   10   15 ar
    24   10   11 ar
    25   11   12 ar
    26   11   40 1
    27   12   13 ar
    28   12   41 1
    29   13   14 ar
    30   13   17 1
    31   14   15 ar
    32   14   16 1
    33   15   42 1
    34   17   18 2
    35   17   19 1
    36   19   20 1
    37   19   43 1
    38   19   44 1
    39   20   21 1
    40   20   45 1
    41   20   46 1
    42   21   26 1
    43   21   22 1
    44   21   55 1
    45   22   23 1
    46   22   47 1
    47   22   48 1
    48   23   24 1
    49   23   49 1
    50   23   50 1
    51   24   25 1
    52   25   26 1
    53   25   51 1
    54   25   52 1
    55   26   53 1
    56   26   54 1
@<TRIPOS>MOLECULE
CHEMBL260482
   43    46     0     0     0
SMALL
USER_CHARGES

@<TRIPOS>ATOM
      1 C1         -0.0167    1.3828    0.0096 C.ar      1 <0>        -0.1789
      2 C2          1.1701    2.0897    0.0021 C.ar      1 <0>        -0.0987
      3 C3          2.3804    1.4127   -0.0131 C.ar      1 <0>         0.0851
      4 C4          2.3993    0.0256   -0.0212 C.ar      1 <0>        -0.0345
      5 C5          1.2130   -0.6813   -0.0141 C.ar      1 <0>        -0.1221
      6 C6          0.0021   -0.0041    0.0020 C.ar      1 <0>         0.1227
      7 O1         -1.1660   -0.6999    0.0099 O.3       1 <0>        -0.2457
      8 C7         -2.3281    0.0045    0.0252 C.ar      1 <0>         0.1513
      9 C8         -2.9077    0.3633    1.2342 C.ar      1 <0>        -0.1114
     10 C9         -4.0896    1.0795    1.2467 C.ar      1 <0>        -0.0497
     11 C10        -4.6948    1.4382    0.0564 C.ar      1 <0>        -0.0797
     12 C11        -4.1198    1.0817   -1.1494 C.ar      1 <0>        -0.0555
     13 C12        -2.9346    0.3712   -1.1681 C.ar      1 <0>        -0.1115
     14 I1         -2.0590   -0.1598   -2.9958 I         1 <0>         0.0035
     15 C13        -5.9837    2.2188    0.0734 C.3       1 <0>        -0.0802
     16 C14        -5.6728    3.7169    0.0712 C.3       1 <0>         0.0950
     17 C15        -6.9538    4.5274    0.0676 C.2       1 <0>         0.5305
     18 O2         -7.8204    4.5310    0.9154 O.2       1 <0>        -0.4573
     19 N1         -6.9285    5.2437   -1.0736 N.am      1 <0>        -0.6784
     20 C16        -5.8212    5.0010   -1.7842 C.2       1 <0>         0.7041
     21 O3         -5.5733    5.5292   -2.8503 O.2       1 <0>        -0.5345
     22 N2         -5.0126    4.1073   -1.1865 N.am      1 <0>        -0.7234
     23 I2         -1.9923   -0.1810    3.0383 I         1 <0>         0.0016
     24 C17         3.7145   -0.7099   -0.0382 C.3       1 <0>        -0.1187
     25 C18         3.6741   -2.2247   -0.2499 C.3       1 <0>        -0.1736
     26 C19         4.0113   -1.6537    1.1289 C.3       1 <0>        -0.1668
     27 O4          3.5486    2.1086   -0.0205 O.3       1 <0>        -0.4920
     28 H1         -0.9592    1.9100    0.0260 H         1 <0>         0.1241
     29 H2          1.1555    3.1696    0.0077 H         1 <0>         0.1341
     30 H3          1.2277   -1.7611   -0.0211 H         1 <0>         0.1387
     31 H4         -4.5411    1.3589    2.1872 H         1 <0>         0.1485
     32 H5         -4.5949    1.3629   -2.0777 H         1 <0>         0.1457
     33 H6         -6.5718    1.9684   -0.8095 H         1 <0>         0.0961
     34 H7         -6.5495    1.9665    0.9703 H         1 <0>         0.1124
     35 H8         -5.0522    3.9798    0.9278 H         1 <0>         0.1345
     36 H9         -7.6271    5.8589   -1.3464 H         1 <0>         0.4363
     37 H10        -4.1608    3.7834   -1.5187 H         1 <0>         0.4407
     38 H11         4.5533   -0.1634   -0.4693 H         1 <0>         0.1221
     39 H12         2.6963   -2.6892   -0.3769 H         1 <0>         0.0995
     40 H13         4.4864   -2.6749   -0.8205 H         1 <0>         0.1007
     41 H14         5.0454   -1.7283    1.4654 H         1 <0>         0.1001
     42 H15         3.2553   -1.7426    1.9091 H         1 <0>         0.0967
     43 H16         3.8949    2.3051    0.8607 H         1 <0>         0.3885
@<TRIPOS>BOND
     1    1    6 ar
     2    1    2 ar
     3    1   28 1
     4    2    3 ar
     5    2   29 1
     6    3    4 ar
     7    3   27 1
     8    4    5 ar
     9    4   24 1
    10    5    6 ar
    11    5   30 1
    12    6    7 1
    13    7    8 1
    14    8   13 ar
    15    8    9 ar
    16    9   10 ar
    17    9   23 1
    18   10   11 ar
    19   10   31 1
    20   11   12 ar
    21   11   15 1
    22   12   13 ar
    23   12   32 1
    24   13   14 1
    25   15   16 1
    26   15   33 1
    27   15   34 1
    28   16   22 1
    29   16   17 1
    30   16   35 1
    31   17   18 2
    32   17   19 am
    33   19   20 am
    34   19   36 1
    35   20   21 2
    36   20   22 am
    37   22   37 1
    38   24   26 1
    39   24   25 1
    40   24   38 1
    41   25   26 1
    42   25   39 1
    43   25   40 1
    44   26   41 1
    45   26   42 1
    46   27   43 1
@<TRIPOS>MOLECULE
CHEMBL260482__1
   43    46     0     0     0
SMALL
USER_CHARGES

@<TRIPOS>ATOM
      1 C1         -0.0167    1.3828    0.0096 C.ar      1 <0>        -0.1789
      2 C2          1.1701    2.0897    0.0021 C.ar      1 <0>        -0.0987
      3 C3          2.3804    1.4127   -0.0131 C.ar      1 <0>         0.0851
      4 C4          2.3993    0.0256   -0.0212 C.ar      1 <0>        -0.0345
      5 C5          1.2130   -0.6813   -0.0141 C.ar      1 <0>        -0.1221
      6 C6          0.0021   -0.0041    0.0020 C.ar      1 <0>         0.1227
      7 O1         -1.1660   -0.6999    0.0099 O.3       1 <0>        -0.2457
      8 C7         -2.3281    0.0045    0.0252 C.ar      1 <0>         0.1513
      9 C8         -2.9077    0.3633    1.2342 C.ar      1 <0>        -0.1117
     10 C9         -4.0896    1.0795    1.2467 C.ar      1 <0>        -0.0559
     11 C10        -4.6948    1.4382    0.0564 C.ar      1 <0>        -0.0797
     12 C11        -4.1198    1.0817   -1.1494 C.ar      1 <0>        -0.0494
     13 C12        -2.9346    0.3712   -1.1681 C.ar      1 <0>        -0.1111
     14 I1         -2.0590   -0.1598   -2.9958 I         1 <0>         0.0031
     15 C13        -5.9837    2.2188    0.0734 C.3       1 <0>        -0.0801
     16 C14        -5.6728    3.7169    0.0712 C.3       1 <0>         0.0949
     17 C15        -6.9533    4.5273    0.1086 C.2       1 <0>         0.5304
     18 O2         -7.8414    4.5319   -0.7167 O.2       1 <0>        -0.4570
     19 N1         -6.8994    5.2412    1.2504 N.am      1 <0>        -0.6785
     20 C16        -5.7746    4.9969    1.9325 C.2       1 <0>         0.7043
     21 O3         -5.5001    5.5227    2.9933 O.2       1 <0>        -0.5349
     22 N2         -4.9813    4.1045    1.3128 N.am      1 <0>        -0.7233
     23 I2         -1.9923   -0.1810    3.0383 I         1 <0>         0.0020
     24 C17         3.7145   -0.7099   -0.0382 C.3       1 <0>        -0.1187
     25 C18         3.6741   -2.2247   -0.2499 C.3       1 <0>        -0.1736
     26 C19         4.0113   -1.6537    1.1289 C.3       1 <0>        -0.1668
     27 O4          3.5486    2.1086   -0.0205 O.3       1 <0>        -0.4921
     28 H1         -0.9592    1.9100    0.0260 H         1 <0>         0.1240
     29 H2          1.1555    3.1696    0.0077 H         1 <0>         0.1341
     30 H3          1.2277   -1.7611   -0.0211 H         1 <0>         0.1387
     31 H4         -4.5411    1.3589    2.1872 H         1 <0>         0.1456
     32 H5         -4.5949    1.3629   -2.0777 H         1 <0>         0.1486
     33 H6         -6.5718    1.9684   -0.8095 H         1 <0>         0.1125
     34 H7         -6.5495    1.9665    0.9703 H         1 <0>         0.0960
     35 H8         -5.0739    3.9817   -0.8001 H         1 <0>         0.1347
     36 H9         -7.5905    5.8565    1.5415 H         1 <0>         0.4364
     37 H10        -4.1217    3.7795    1.6231 H         1 <0>         0.4406
     38 H11         4.5533   -0.1634   -0.4693 H         1 <0>         0.1221
     39 H12         2.6963   -2.6892   -0.3769 H         1 <0>         0.0995
     40 H13         4.4864   -2.6749   -0.8205 H         1 <0>         0.1007
     41 H14         5.0454   -1.7283    1.4654 H         1 <0>         0.1001
     42 H15         3.2553   -1.7426    1.9091 H         1 <0>         0.0967
     43 H16         3.8949    2.3051    0.8607 H         1 <0>         0.3887
@<TRIPOS>BOND
     1    1    6 ar
     2    1    2 ar
     3    1   28 1
     4    2    3 ar
     5    2   29 1
     6    3    4 ar
     7    3   27 1
     8    4    5 ar
     9    4   24 1
    10    5    6 ar
    11    5   30 1
    12    6    7 1
    13    7    8 1
    14    8   13 ar
    15    8    9 ar
    16    9   10 ar
    17    9   23 1
    18   10   11 ar
    19   10   31 1
    20   11   12 ar
    21   11   15 1
    22   12   13 ar
    23   12   32 1
    24   13   14 1
    25   15   16 1
    26   15   33 1
    27   15   34 1
    28   16   22 1
    29   16   17 1
    30   16   35 1
    31   17   18 2
    32   17   19 am
    33   19   20 am
    34   19   36 1
    35   20   21 2
    36   20   22 am
    37   22   37 1
    38   24   26 1
    39   24   25 1
    40   24   38 1
    41   25   26 1
    42   25   39 1
    43   25   40 1
    44   26   41 1
    45   26   42 1
    46   27   43 1
@<TRIPOS>MOLECULE
CHEMBL350930
   59    61     0     0     0
SMALL
USER_CHARGES

@<TRIPOS>ATOM
      1 C1         -0.0184    1.5028    0.0103 C.3       1 <0>        -0.1085
      2 C2          0.0021   -0.0041    0.0020 C.ar      1 <0>        -0.0351
      3 C3          0.0057   -0.6878   -1.1978 C.ar      1 <0>        -0.2055
      4 C4          0.0245   -2.0763   -1.2052 C.ar      1 <0>         0.2591
      5 C5          0.0397   -2.7763   -0.0059 C.ar      1 <0>        -0.1924
      6 C6          0.0360   -2.0912    1.1931 C.ar      1 <0>        -0.0318
      7 C7          0.0230   -0.7039    1.1997 C.ar      1 <0>        -0.0139
      8 O1          0.0250   -0.0299    2.3807 O.3       1 <0>        -0.2436
      9 C8         -1.1744    0.2701    2.9464 C.ar      1 <0>         0.1254
     10 C9         -2.3519   -0.1154    2.3219 C.ar      1 <0>        -0.1779
     11 C10        -3.5700    0.1890    2.8968 C.ar      1 <0>        -0.1012
     12 C11        -3.6164    0.8806    4.0985 C.ar      1 <0>         0.0596
     13 C12        -2.4395    1.2663    4.7226 C.ar      1 <0>        -0.0671
     14 C13        -1.2208    0.9566    4.1508 C.ar      1 <0>        -0.1385
     15 C14        -2.4902    2.0184    6.0276 C.3       1 <0>        -0.0539
     16 C15        -1.7631    1.2151    7.1078 C.3       1 <0>        -0.1445
     17 C16        -1.8100    3.3786    5.8590 C.3       1 <0>        -0.1421
     18 O2         -4.8159    1.1807    4.6644 O.3       1 <0>        -0.4950
     19 C17         0.0520   -2.8506    2.4947 C.3       1 <0>        -0.1116
     20 N1          0.0278   -2.7698   -2.4205 N.pl3     1 <0>        -0.7015
     21 C18         0.0477   -4.2347   -2.4280 C.3       1 <0>         0.0873
     22 C19         0.6574   -4.7298   -3.7410 C.3       1 <0>        -0.0776
     23 C20         2.1033   -4.3111   -3.8128 C.ar      1 <0>        -0.0642
     24 C21         2.4436   -3.0952   -4.3754 C.ar      1 <0>        -0.1132
     25 C22         3.7699   -2.7111   -4.4413 C.ar      1 <0>        -0.1193
     26 C23         4.7558   -3.5428   -3.9441 C.ar      1 <0>        -0.1334
     27 C24         4.4154   -4.7583   -3.3806 C.ar      1 <0>        -0.1192
     28 C25         3.0888   -5.1405   -3.3109 C.ar      1 <0>        -0.1181
     29 C26        -1.3601   -4.7568   -2.2995 C.2       1 <0>         0.4856
     30 O3         -2.2935   -4.1082   -2.7407 O.co2     1 <0>        -0.6817
     31 O4         -1.5657   -5.8278   -1.7543 O.co2     1 <0>        -0.6954
     32 H1          1.0042    1.8801    0.0026 H         1 <0>         0.0704
     33 H2         -0.5455    1.8639   -0.8728 H         1 <0>         0.0645
     34 H3         -0.5286    1.8543    0.9071 H         1 <0>         0.0633
     35 H4         -0.0064   -0.1428   -2.1301 H         1 <0>         0.1207
     36 H5          0.0540   -3.8562   -0.0110 H         1 <0>         0.1296
     37 H6         -2.3158   -0.6531    1.3860 H         1 <0>         0.1356
     38 H7         -4.4866   -0.1110    2.4107 H         1 <0>         0.1290
     39 H8         -0.3042    1.2528    4.6392 H         1 <0>         0.1308
     40 H9         -3.5293    2.1658    6.3219 H         1 <0>         0.0847
     41 H10        -0.7240    1.0677    6.8134 H         1 <0>         0.0581
     42 H11        -1.7997    1.7590    8.0516 H         1 <0>         0.0568
     43 H12        -2.2477    0.2461    7.2279 H         1 <0>         0.0544
     44 H13        -1.8466    3.9226    6.8028 H         1 <0>         0.0563
     45 H14        -0.7709    3.2312    5.5646 H         1 <0>         0.0571
     46 H15        -2.3280    3.9509    5.0894 H         1 <0>         0.0559
     47 H16        -5.1463    0.5022    5.2690 H         1 <0>         0.3814
     48 H17         1.0834   -3.0201    2.8038 H         1 <0>         0.0714
     49 H18        -0.4661   -2.2719    3.2593 H         1 <0>         0.0628
     50 H19        -0.4498   -3.8091    2.3622 H         1 <0>         0.0689
     51 H20         0.0169   -2.2807   -3.2581 H         1 <0>         0.3931
     52 H21         0.6463   -4.5942   -1.5910 H         1 <0>         0.0751
     53 H22         0.5913   -5.8169   -3.7851 H         1 <0>         0.0864
     54 H23         0.1121   -4.2983   -4.5803 H         1 <0>         0.0752
     55 H24         1.6733   -2.4454   -4.7639 H         1 <0>         0.1164
     56 H25         4.0359   -1.7615   -4.8815 H         1 <0>         0.1167
     57 H26         5.7921   -3.2430   -3.9962 H         1 <0>         0.1155
     58 H27         5.1857   -5.4082   -2.9924 H         1 <0>         0.1175
     59 H28         2.8225   -6.0885   -2.8673 H         1 <0>         0.1216
@<TRIPOS>BOND
     1    1    2 1
     2    1   32 1
     3    1   33 1
     4    1   34 1
     5    2    7 ar
     6    2    3 ar
     7    3    4 ar
     8    3   35 1
     9    4    5 ar
    10    4   20 1
    11    5    6 ar
    12    5   36 1
    13    6    7 ar
    14    6   19 1
    15    7    8 1
    16    8    9 1
    17    9   14 ar
    18    9   10 ar
    19   10   11 ar
    20   10   37 1
    21   11   12 ar
    22   11   38 1
    23   12   13 ar
    24   12   18 1
    25   13   14 ar
    26   13   15 1
    27   14   39 1
    28   15   16 1
    29   15   17 1
    30   15   40 1
    31   16   41 1
    32   16   42 1
    33   16   43 1
    34   17   44 1
    35   17   45 1
    36   17   46 1
    37   18   47 1
    38   19   48 1
    39   19   49 1
    40   19   50 1
    41   20   21 1
    42   20   51 1
    43   21   22 1
    44   21   29 1
    45   21   52 1
    46   22   23 1
    47   22   53 1
    48   22   54 1
    49   23   28 ar
    50   23   24 ar
    51   24   25 ar
    52   24   55 1
    53   25   26 ar
    54   25   56 1
    55   26   27 ar
    56   26   57 1
    57   27   28 ar
    58   27   58 1
    59   28   59 1
    60   29   30 2
    61   29   31 1
@<TRIPOS>MOLECULE
CHEMBL350930__1
   59    61     0     0     0
SMALL
USER_CHARGES

@<TRIPOS>ATOM
      1 C1         -0.0184    1.5028    0.0103 C.3       1 <0>        -0.1083
      2 C2          0.0021   -0.0041    0.0020 C.ar      1 <0>        -0.0344
      3 C3          0.0057   -0.6878   -1.1978 C.ar      1 <0>        -0.2070
      4 C4          0.0245   -2.0763   -1.2052 C.ar      1 <0>         0.2692
      5 C5          0.0397   -2.7763   -0.0059 C.ar      1 <0>        -0.1877
      6 C6          0.0360   -2.0912    1.1931 C.ar      1 <0>        -0.0325
      7 C7          0.0230   -0.7039    1.1997 C.ar      1 <0>        -0.0154
      8 O1          0.0250   -0.0299    2.3807 O.3       1 <0>        -0.2418
      9 C8         -1.1744    0.2701    2.9464 C.ar      1 <0>         0.1283
     10 C9         -2.3519   -0.1154    2.3219 C.ar      1 <0>        -0.1800
     11 C10        -3.5700    0.1890    2.8968 C.ar      1 <0>        -0.1027
     12 C11        -3.6164    0.8806    4.0985 C.ar      1 <0>         0.0575
     13 C12        -2.4395    1.2663    4.7226 C.ar      1 <0>        -0.0651
     14 C13        -1.2208    0.9566    4.1508 C.ar      1 <0>        -0.1388
     15 C14        -2.4902    2.0184    6.0276 C.3       1 <0>        -0.0542
     16 C15        -1.7631    1.2151    7.1078 C.3       1 <0>        -0.1449
     17 C16        -1.8100    3.3786    5.8590 C.3       1 <0>        -0.1426
     18 O2         -4.8159    1.1807    4.6644 O.3       1 <0>        -0.4951
     19 C17         0.0520   -2.8506    2.4947 C.3       1 <0>        -0.1103
     20 N1          0.0278   -2.7698   -2.4205 N.pl3     1 <0>        -0.7008
     21 C18         0.0477   -4.2347   -2.4280 C.3       1 <0>         0.0860
     22 C19        -0.5617   -4.7464   -3.7348 C.3       1 <0>        -0.0759
     23 C20        -2.0191   -4.3671   -3.7918 C.ar      1 <0>        -0.0640
     24 C21        -2.9761   -5.2203   -3.2749 C.ar      1 <0>        -0.1183
     25 C22        -4.3129   -4.8725   -3.3272 C.ar      1 <0>        -0.1192
     26 C23        -4.6928   -3.6712   -3.8960 C.ar      1 <0>        -0.1339
     27 C24        -3.7357   -2.8176   -4.4120 C.ar      1 <0>        -0.1192
     28 C25        -2.3986   -3.1635   -4.3559 C.ar      1 <0>        -0.1142
     29 C26         1.4704   -4.7183   -2.3139 C.2       1 <0>         0.4823
     30 O3          2.3831   -3.9140   -2.2338 O.co2     1 <0>        -0.6754
     31 O4          1.7086   -5.9140   -2.3017 O.co2     1 <0>        -0.6973
     32 H1          1.0042    1.8801    0.0026 H         1 <0>         0.0717
     33 H2         -0.5455    1.8639   -0.8728 H         1 <0>         0.0634
     34 H3         -0.5286    1.8543    0.9071 H         1 <0>         0.0623
     35 H4         -0.0064   -0.1428   -2.1301 H         1 <0>         0.1197
     36 H5          0.0540   -3.8562   -0.0110 H         1 <0>         0.1243
     37 H6         -2.3158   -0.6531    1.3860 H         1 <0>         0.1340
     38 H7         -4.4866   -0.1110    2.4107 H         1 <0>         0.1268
     39 H8         -0.3042    1.2528    4.6392 H         1 <0>         0.1315
     40 H9         -3.5293    2.1658    6.3219 H         1 <0>         0.0845
     41 H10        -0.7240    1.0677    6.8134 H         1 <0>         0.0587
     42 H11        -1.7997    1.7590    8.0516 H         1 <0>         0.0572
     43 H12        -2.2477    0.2461    7.2279 H         1 <0>         0.0541
     44 H13        -1.8466    3.9226    6.8028 H         1 <0>         0.0567
     45 H14        -0.7709    3.2312    5.5646 H         1 <0>         0.0577
     46 H15        -2.3280    3.9509    5.0894 H         1 <0>         0.0558
     47 H16        -5.1463    0.5022    5.2690 H         1 <0>         0.3808
     48 H17         1.0834   -3.0201    2.8038 H         1 <0>         0.0738
     49 H18        -0.4661   -2.2719    3.2593 H         1 <0>         0.0617
     50 H19        -0.4498   -3.8091    2.3622 H         1 <0>         0.0651
     51 H20         0.0169   -2.2807   -3.2581 H         1 <0>         0.3912
     52 H21        -0.5325   -4.6102   -1.5850 H         1 <0>         0.0748
     53 H22        -0.0369   -4.3003   -4.5796 H         1 <0>         0.0704
     54 H23        -0.4666   -5.8313   -3.7797 H         1 <0>         0.0929
     55 H24        -2.6793   -6.1589   -2.8305 H         1 <0>         0.1217
     56 H25        -5.0606   -5.5394   -2.9240 H         1 <0>         0.1172
     57 H26        -5.7373   -3.3997   -3.9375 H         1 <0>         0.1152
     58 H27        -4.0326   -1.8792   -4.8567 H         1 <0>         0.1164
     59 H28        -1.6505   -2.4949   -4.7557 H         1 <0>         0.1159
@<TRIPOS>BOND
     1    1    2 1
     2    1   32 1
     3    1   33 1
     4    1   34 1
     5    2    7 ar
     6    2    3 ar
     7    3    4 ar
     8    3   35 1
     9    4    5 ar
    10    4   20 1
    11    5    6 ar
    12    5   36 1
    13    6    7 ar
    14    6   19 1
    15    7    8 1
    16    8    9 1
    17    9   14 ar
    18    9   10 ar
    19   10   11 ar
    20   10   37 1
    21   11   12 ar
    22   11   38 1
    23   12   13 ar
    24   12   18 1
    25   13   14 ar
    26   13   15 1
    27   14   39 1
    28   15   16 1
    29   15   17 1
    30   15   40 1
    31   16   41 1
    32   16   42 1
    33   16   43 1
    34   17   44 1
    35   17   45 1
    36   17   46 1
    37   18   47 1
    38   19   48 1
    39   19   49 1
    40   19   50 1
    41   20   21 1
    42   20   51 1
    43   21   22 1
    44   21   29 1
    45   21   52 1
    46   22   23 1
    47   22   53 1
    48   22   54 1
    49   23   28 ar
    50   23   24 ar
    51   24   25 ar
    52   24   55 1
    53   25   26 ar
    54   25   56 1
    55   26   27 ar
    56   26   57 1
    57   27   28 ar
    58   27   58 1
    59   28   59 1
    60   29   30 2
    61   29   31 1
@<TRIPOS>MOLECULE
CHEMBL109430
   74    76     0     0     0
SMALL
USER_CHARGES

@<TRIPOS>ATOM
      1 C1          0.9897    1.8279   -0.7984 C.3       1 <0>        -0.1535
      2 C2          0.9172    0.3024   -0.7053 C.3       1 <0>        -0.1269
      3 C3          1.5254   -0.3150   -1.9662 C.3       1 <0>        -0.1200
      4 C4          1.4529   -1.8404   -1.8731 C.3       1 <0>        -0.1158
      5 C5          2.0611   -2.4578   -3.1339 C.3       1 <0>        -0.0821
      6 C6          1.9897   -3.9603   -3.0422 C.ar      1 <0>        -0.0736
      7 C7          3.0319   -4.6652   -2.4662 C.ar      1 <0>        -0.1159
      8 C8          2.9734   -6.0404   -2.3783 C.ar      1 <0>        -0.0915
      9 C9          1.8581   -6.7218   -2.8728 C.ar      1 <0>         0.0145
     10 C10         0.8094   -6.0031   -3.4532 C.ar      1 <0>        -0.0915
     11 C11         0.8797   -4.6278   -3.5293 C.ar      1 <0>        -0.1171
     12 C12         1.7902   -8.1495   -2.7856 C.1       1 <0>        -0.1223
     13 C13         1.7346   -9.3200   -2.7142 C.1       1 <0>        -0.1002
     14 C14         1.6667  -10.7477   -2.6270 C.ar      1 <0>        -0.0096
     15 C15         2.7124  -11.4664   -2.0421 C.ar      1 <0>        -0.0846
     16 C16         2.6404  -12.8411   -1.9609 C.ar      1 <0>        -0.0694
     17 C17         1.5362  -13.5129   -2.4572 C.ar      1 <0>        -0.0863
     18 C18         0.4951  -12.8135   -3.0382 C.ar      1 <0>        -0.0956
     19 C19         0.5481  -11.4320   -3.1229 C.ar      1 <0>         0.1231
     20 O1         -0.4770  -10.7436   -3.6886 O.3       1 <0>        -0.4874
     21 C20        -0.7021  -13.5548   -3.5752 C.3       1 <0>        -0.0548
     22 C21        -0.2524  -14.5258   -4.6687 C.3       1 <0>        -0.1440
     23 C22        -1.3684  -14.3367   -2.4414 C.3       1 <0>        -0.1444
     24 C23         3.7687  -13.6156   -1.3299 C.3       1 <0>        -0.0353
     25 C24         3.4964  -13.7904    0.1420 C.ar      1 <0>        -0.1380
     26 C25         2.9167  -14.9581    0.6027 C.ar      1 <0>        -0.0384
     27 C26         2.6657  -15.1206    1.9513 C.ar      1 <0>        -0.1648
     28 C27         2.9961  -14.1112    2.8438 C.ar      1 <0>         0.1484
     29 C28         3.5781  -12.9407    2.3791 C.ar      1 <0>        -0.2202
     30 C29         3.8319  -12.7852    1.0301 C.ar      1 <0>        -0.0348
     31 C30         4.4696  -11.5165    0.5253 C.3       1 <0>        -0.1211
     32 O2          2.7497  -14.2685    4.1710 O.3       1 <0>        -0.2811
     33 C31         3.1161  -13.1879    5.0314 C.3       1 <0>        -0.0059
     34 C32         2.7702  -13.5401    6.4553 C.2       1 <0>         0.5012
     35 O3          2.2575  -14.6166    6.7097 O.co2     1 <0>        -0.6710
     36 O4          3.0031  -12.7484    7.3528 O.co2     1 <0>        -0.6879
     37 C33         2.5580  -16.0542   -0.3674 C.3       1 <0>        -0.1193
     38 H1          2.0309    2.1373   -0.8886 H         1 <0>         0.0532
     39 H2          0.4333    2.1653   -1.6729 H         1 <0>         0.0527
     40 H3          0.5563    2.2677    0.0998 H         1 <0>         0.0532
     41 H4          1.4735   -0.0351    0.1692 H         1 <0>         0.0616
     42 H5         -0.1241   -0.0070   -0.6152 H         1 <0>         0.0610
     43 H6          0.9691    0.0225   -2.8407 H         1 <0>         0.0613
     44 H7          2.5666   -0.0055   -2.0563 H         1 <0>         0.0618
     45 H8          2.0092   -2.1779   -0.9986 H         1 <0>         0.0648
     46 H9          0.4116   -2.1499   -1.7829 H         1 <0>         0.0641
     47 H10         1.5048   -2.1204   -4.0084 H         1 <0>         0.0726
     48 H11         3.1024   -2.1484   -3.2240 H         1 <0>         0.0732
     49 H12         3.8934   -4.1373   -2.0848 H         1 <0>         0.1270
     50 H13         3.7877   -6.5892   -1.9288 H         1 <0>         0.1273
     51 H14        -0.0555   -6.5231   -3.8377 H         1 <0>         0.1264
     52 H15         0.0681   -4.0708   -3.9735 H         1 <0>         0.1261
     53 H16         3.5758  -10.9462   -1.6544 H         1 <0>         0.1342
     54 H17         1.4881  -14.5897   -2.3903 H         1 <0>         0.1320
     55 H18        -0.3830  -10.6110   -4.6418 H         1 <0>         0.3858
     56 H19        -1.4137  -12.8422   -3.9922 H         1 <0>         0.0842
     57 H20         0.4592  -15.2384   -4.2517 H         1 <0>         0.0577
     58 H21        -1.1183  -15.0620   -5.0571 H         1 <0>         0.0588
     59 H22         0.2223  -13.9687   -5.4765 H         1 <0>         0.0534
     60 H23        -1.6888  -13.6450   -1.6623 H         1 <0>         0.0577
     61 H24        -2.2344  -14.8729   -2.8297 H         1 <0>         0.0584
     62 H25        -0.6569  -15.0494   -2.0243 H         1 <0>         0.0583
     63 H26         3.8473  -14.5941   -1.8036 H         1 <0>         0.0835
     64 H27         4.7031  -13.0707   -1.4643 H         1 <0>         0.0815
     65 H28         2.2122  -16.0326    2.3106 H         1 <0>         0.1282
     66 H29         3.8362  -12.1534    3.0719 H         1 <0>         0.1264
     67 H30         3.6934  -10.8256    0.1962 H         1 <0>         0.0720
     68 H31         5.0488  -11.0573    1.3264 H         1 <0>         0.0654
     69 H32         5.1279  -11.7489   -0.3118 H         1 <0>         0.0686
     70 H33         4.1881  -13.0076    4.9519 H         1 <0>         0.0586
     71 H34         2.5737  -12.2893    4.7373 H         1 <0>         0.0584
     72 H35         3.3667  -16.7840   -0.4062 H         1 <0>         0.0713
     73 H36         1.6416  -16.5445   -0.0389 H         1 <0>         0.0681
     74 H37         2.4063  -15.6269   -1.3586 H         1 <0>         0.0683
@<TRIPOS>BOND
     1    1    2 1
     2    1   38 1
     3    1   39 1
     4    1   40 1
     5    2    3 1
     6    2   41 1
     7    2   42 1
     8    3    4 1
     9    3   43 1
    10    3   44 1
    11    4    5 1
    12    4   45 1
    13    4   46 1
    14    5    6 1
    15    5   47 1
    16    5   48 1
    17    6   11 ar
    18    6    7 ar
    19    7    8 ar
    20    7   49 1
    21    8    9 ar
    22    8   50 1
    23    9   10 ar
    24    9   12 1
    25   10   11 ar
    26   10   51 1
    27   11   52 1
    28   12   13 3
    29   13   14 1
    30   14   19 ar
    31   14   15 ar
    32   15   16 ar
    33   15   53 1
    34   16   17 ar
    35   16   24 1
    36   17   18 ar
    37   17   54 1
    38   18   19 ar
    39   18   21 1
    40   19   20 1
    41   20   55 1
    42   21   22 1
    43   21   23 1
    44   21   56 1
    45   22   57 1
    46   22   58 1
    47   22   59 1
    48   23   60 1
    49   23   61 1
    50   23   62 1
    51   24   25 1
    52   24   63 1
    53   24   64 1
    54   25   30 ar
    55   25   26 ar
    56   26   27 ar
    57   26   37 1
    58   27   28 ar
    59   27   65 1
    60   28   29 ar
    61   28   32 1
    62   29   30 ar
    63   29   66 1
    64   30   31 1
    65   31   67 1
    66   31   68 1
    67   31   69 1
    68   32   33 1
    69   33   34 1
    70   33   70 1
    71   33   71 1
    72   34   35 2
    73   34   36 1
    74   37   72 1
    75   37   73 1
    76   37   74 1
@<TRIPOS>MOLECULE
CHEMBL124318
   47    50     0     0     0
SMALL
USER_CHARGES

@<TRIPOS>ATOM
      1 C1         -0.1119    1.2086    0.9656 C.ar      1 <0>        -0.1464
      2 C2          1.0211    1.8311    1.4503 C.ar      1 <0>        -0.1121
      3 C3          2.2343    1.1599    1.4600 C.ar      1 <0>         0.1448
      4 C4          2.3080   -0.1531    0.9761 C.ar      1 <0>        -0.1298
      5 C5          1.1572   -0.7756    0.4874 C.ar      1 <0>        -0.0908
      6 C6         -0.0459   -0.0932    0.4843 C.ar      1 <0>         0.1060
      7 O1         -1.1670   -0.6979    0.0089 O.3       1 <0>        -0.2359
      8 C7         -2.3285    0.0086    0.0240 C.ar      1 <0>         0.1064
      9 C8         -3.1595   -0.0455    1.1351 C.ar      1 <0>        -0.0250
     10 C9         -4.3398    0.6723    1.1507 C.ar      1 <0>        -0.0793
     11 C10        -4.6952    1.4481    0.0548 C.ar      1 <0>         0.1867
     12 C11        -3.8638    1.5020   -1.0566 C.ar      1 <0>        -0.0736
     13 C12        -2.6808    0.7885   -1.0694 C.ar      1 <0>        -0.0223
     14 Cl1        -1.6382    0.8615   -2.4555 Cl        1 <0>        -0.0158
     15 N1         -5.8918    2.1754    0.0701 N.am      1 <0>        -0.4044
     16 C13        -6.7309    2.0949   -0.9778 C.2       1 <0>         0.6842
     17 O2         -6.4394    1.3912   -1.9256 O.2       1 <0>        -0.5103
     18 N2         -7.8889    2.7814   -0.9932 N.am      1 <0>        -0.6531
     19 H1         -8.4832    2.7122   -1.7566 H         1 <0>         0.4402
     20 C14        -8.2234    3.5651    0.0527 C.2       1 <0>         0.5164
     21 O3         -9.2691    4.1880    0.0463 O.2       1 <0>        -0.4656
     22 C15        -7.3126    3.6566    1.1967 C.2       1 <0>         0.0698
     23 N3         -6.2017    2.9724    1.1786 N.2       1 <0>        -0.1685
     24 Cl2        -2.7155   -1.0157    2.5045 Cl        1 <0>        -0.0174
     25 C16         3.5951   -0.8743    0.9823 C.2       1 <0>         0.5615
     26 O4          4.5953   -0.3295    1.4080 O.2       1 <0>        -0.5148
     27 N4          3.6623   -2.1371    0.5161 N.am      1 <0>        -0.7179
     28 C17         4.9403   -2.8532    0.5223 C.3       1 <0>         0.1222
     29 C18         5.5572   -3.0247   -0.8759 C.3       1 <0>        -0.1541
     30 C19         5.9598   -4.4429   -0.4382 C.3       1 <0>        -0.1397
     31 C20         4.7890   -4.3832    0.5570 C.3       1 <0>        -0.1476
     32 O5          3.3475    1.7731    1.9364 O.3       1 <0>        -0.4737
     33 H2         -1.0551    1.7346    0.9646 H         1 <0>         0.1330
     34 H3          0.9624    2.8432    1.8225 H         1 <0>         0.1437
     35 H4          1.2066   -1.7872    0.1126 H         1 <0>         0.1412
     36 H5         -4.9863    0.6299    2.0148 H         1 <0>         0.1596
     37 H6         -4.1399    2.1052   -1.9088 H         1 <0>         0.1572
     38 H7         -7.5596    4.2777    2.0450 H         1 <0>         0.2342
     39 H8          2.8644   -2.5718    0.1765 H         1 <0>         0.4000
     40 H9          5.6386   -2.4666    1.2646 H         1 <0>         0.1171
     41 H10         4.8235   -3.0082   -1.6818 H         1 <0>         0.0842
     42 H11         6.4066   -2.3675   -1.0620 H         1 <0>         0.0732
     43 H12         5.8319   -5.1934   -1.2183 H         1 <0>         0.0747
     44 H13         6.9379   -4.4909    0.0405 H         1 <0>         0.0852
     45 H14         5.0183   -4.8227    1.5278 H         1 <0>         0.0758
     46 H15         3.8453   -4.7381    0.1429 H         1 <0>         0.0858
     47 H16         3.4934    1.6431    2.8834 H         1 <0>         0.3954
@<TRIPOS>BOND
     1    1    6 ar
     2    1    2 ar
     3    1   33 1
     4    2    3 ar
     5    2   34 1
     6    3    4 ar
     7    3   32 1
     8    4    5 ar
     9    4   25 1
    10    5    6 ar
    11    5   35 1
    12    6    7 1
    13    7    8 1
    14    8   13 ar
    15    8    9 ar
    16    9   10 ar
    17    9   24 1
    18   10   11 ar
    19   10   36 1
    20   11   12 ar
    21   11   15 1
    22   12   13 ar
    23   12   37 1
    24   13   14 1
    25   15   23 1
    26   15   16 am
    27   16   17 2
    28   16   18 am
    29   18   19 1
    30   18   20 am
    31   20   21 2
    32   20   22 1
    33   22   23 2
    34   22   38 1
    35   25   26 2
    36   25   27 am
    37   27   28 1
    38   27   39 1
    39   28   31 1
    40   28   29 1
    41   28   40 1
    42   29   30 1
    43   29   41 1
    44   29   42 1
    45   30   31 1
    46   30   43 1
    47   30   44 1
    48   31   45 1
    49   31   46 1
    50   32   47 1
@<TRIPOS>MOLECULE
CHEMBL124318__1
   46    49     0     0     0
SMALL
USER_CHARGES

@<TRIPOS>ATOM
      1 C1         -0.1127    1.2072    0.9692 C.ar      1 <0>        -0.1441
      2 C2          1.0199    1.8290    1.4558 C.ar      1 <0>        -0.1118
      3 C3          2.2330    1.1578    1.4656 C.ar      1 <0>         0.1376
      4 C4          2.3071   -0.1546    0.9800 C.ar      1 <0>        -0.1337
      5 C5          1.1567   -0.7763    0.4895 C.ar      1 <0>        -0.0962
      6 C6         -0.0463   -0.0939    0.4861 C.ar      1 <0>         0.1132
      7 O1         -1.1670   -0.6979    0.0089 O.3       1 <0>        -0.2342
      8 C7         -2.3284    0.0085    0.0239 C.ar      1 <0>         0.0812
      9 C8         -3.1605   -0.0472    1.1342 C.ar      1 <0>        -0.0221
     10 C9         -4.3407    0.6705    1.1498 C.ar      1 <0>        -0.0912
     11 C10        -4.6951    1.4480    0.0545 C.ar      1 <0>         0.2020
     12 C11        -3.8625    1.5035   -1.0562 C.ar      1 <0>        -0.0726
     13 C12        -2.6797    0.7901   -1.0688 C.ar      1 <0>        -0.0194
     14 Cl1        -1.6357    0.8650   -2.4538 Cl        1 <0>        -0.0319
     15 N1         -5.8911    2.1750    0.0698 N.am      1 <0>        -0.3718
     16 C13        -6.7266    2.0909   -0.9811 C.2       1 <0>         0.6175
     17 O2         -6.4346    1.3846   -1.9320 O.2       1 <0>        -0.5688
     18 N2         -7.8743    2.7750   -0.9905 N.2       1 <0>        -0.6230
     19 C14        -8.1794    3.5385    0.0499 C.2       1 <0>         0.4331
     20 O3         -9.3327    4.2432    0.0724 O.3       1 <0>        -0.6438
     21 C15        -7.2768    3.6009    1.1340 C.2       1 <0>         0.0088
     22 N3         -6.1712    2.9059    1.0910 N.2       1 <0>        -0.2231
     23 Cl2        -2.7177   -1.0193    2.5027 Cl        1 <0>        -0.0355
     24 C16         3.5942   -0.8758    0.9864 C.2       1 <0>         0.5644
     25 O4          4.5940   -0.3315    1.4137 O.2       1 <0>        -0.5190
     26 N4          3.6618   -2.1380    0.5185 N.am      1 <0>        -0.7193
     27 C17         4.9398   -2.8541    0.5249 C.3       1 <0>         0.1231
     28 C18         5.5579   -3.0237   -0.8730 C.3       1 <0>        -0.1544
     29 C19         5.9601   -4.4424   -0.4370 C.3       1 <0>        -0.1395
     30 C20         4.7884   -4.3841    0.5574 C.3       1 <0>        -0.1479
     31 O5          3.3458    1.7704    1.9438 O.3       1 <0>        -0.4750
     32 H1         -1.0560    1.7333    0.9681 H         1 <0>         0.1363
     33 H2          0.9608    2.8406    1.8293 H         1 <0>         0.1422
     34 H3          1.2065   -1.7875    0.1133 H         1 <0>         0.1389
     35 H4         -4.9879    0.6269    2.0133 H         1 <0>         0.1548
     36 H5         -4.1380    2.1077   -1.9080 H         1 <0>         0.1570
     37 H6         -7.5006    4.2148    1.9939 H         1 <0>         0.1840
     38 H7          2.8642   -2.5722    0.1776 H         1 <0>         0.4008
     39 H8          5.6374   -2.4685    1.2683 H         1 <0>         0.1159
     40 H9          4.8249   -3.0061   -1.6796 H         1 <0>         0.0848
     41 H10         6.4075   -2.3662   -1.0574 H         1 <0>         0.0722
     42 H11         5.8329   -5.1919   -1.2182 H         1 <0>         0.0738
     43 H12         6.9377   -4.4912    0.0426 H         1 <0>         0.0839
     44 H13         5.0169   -4.8250    1.5277 H         1 <0>         0.0748
     45 H14         3.8451   -4.7385    0.1419 H         1 <0>         0.0863
     46 H15         3.4908    1.6390    2.8908 H         1 <0>         0.3919
@<TRIPOS>BOND
     1    1    6 ar
     2    1    2 ar
     3    1   32 1
     4    2    3 ar
     5    2   33 1
     6    3    4 ar
     7    3   31 1
     8    4    5 ar
     9    4   24 1
    10    5    6 ar
    11    5   34 1
    12    6    7 1
    13    7    8 1
    14    8   13 ar
    15    8    9 ar
    16    9   10 ar
    17    9   23 1
    18   10   11 ar
    19   10   35 1
    20   11   12 ar
    21   11   15 1
    22   12   13 ar
    23   12   36 1
    24   13   14 1
    25   15   22 1
    26   15   16 am
    27   16   17 2
    28   16   18 1
    29   18   19 2
    30   19   20 1
    31   19   21 1
    32   21   22 2
    33   21   37 1
    34   24   25 2
    35   24   26 am
    36   26   27 1
    37   26   38 1
    38   27   30 1
    39   27   28 1
    40   27   39 1
    41   28   29 1
    42   28   40 1
    43   28   41 1
    44   29   30 1
    45   29   42 1
    46   29   43 1
    47   30   44 1
    48   30   45 1
    49   31   46 1
@<TRIPOS>MOLECULE
CHEMBL251439
   47    49     0     0     0
SMALL
USER_CHARGES

@<TRIPOS>ATOM
      1 C1         -0.0878    1.5010    0.0101 C.3       1 <0>        -0.1149
      2 C2         -0.0311   -0.0049    0.0019 C.ar      1 <0>        -0.0214
      3 C3          0.0052   -0.6786   -1.1975 C.ar      1 <0>        -0.1834
      4 C4          0.0577   -2.0705   -1.2120 C.ar      1 <0>         0.2209
      5 C5          0.0732   -2.7756    0.0069 C.ar      1 <0>        -0.2102
      6 C6          0.0356   -2.0817    1.2170 C.ar      1 <0>         0.0176
      7 C7         -0.0101   -0.7011    1.2093 C.ar      1 <0>         0.0065
      8 O1         -0.0405   -0.0186    2.3844 O.3       1 <0>        -0.2415
      9 C8         -1.2543    0.2571    2.9312 C.ar      1 <0>         0.1225
     10 C9         -2.4136   -0.1609    2.2936 C.ar      1 <0>        -0.1799
     11 C10        -3.6465    0.1192    2.8490 C.ar      1 <0>        -0.1012
     12 C11        -3.7260    0.8185    4.0445 C.ar      1 <0>         0.0648
     13 C12        -2.5673    1.2364    4.6819 C.ar      1 <0>        -0.0646
     14 C13        -1.3337    0.9513    4.1294 C.ar      1 <0>        -0.1328
     15 C14        -2.6538    1.9960    5.9806 C.3       1 <0>        -0.0548
     16 C15        -1.9231    1.2175    7.0765 C.3       1 <0>        -0.1454
     17 C16        -2.0038    3.3707    5.8116 C.3       1 <0>        -0.1427
     18 O2         -4.9400    1.0947    4.5912 O.3       1 <0>        -0.4944
     19 C17         0.0515   -2.8330    2.5232 C.3       1 <0>        -0.1205
     20 C18         0.1288   -4.2459   -0.0296 C.2       1 <0>         0.4177
     21 O3          0.1437   -4.9006    0.9988 O.2       1 <0>        -0.5066
     22 C19         0.1641   -4.8785   -1.3028 C.2       1 <0>        -0.2881
     23 C20         0.1462   -4.1267   -2.4325 C.2       1 <0>         0.1448
     24 N1          0.0942   -2.7632   -2.3995 N.pl3     1 <0>        -0.5835
     25 H1          0.0829   -2.2702   -3.2349 H         1 <0>         0.4252
     26 C21         0.1843   -4.8095   -3.7467 C.2       1 <0>         0.5232
     27 O4          0.2310   -6.0295   -3.8003 O.co2     1 <0>        -0.6468
     28 O5          0.1690   -4.1526   -4.7772 O.co2     1 <0>        -0.6727
     29 H2          0.9254    1.9027    0.0166 H         1 <0>         0.0793
     30 H3         -0.6113    1.8497   -0.8801 H         1 <0>         0.0716
     31 H4         -0.6187    1.8397    0.8998 H         1 <0>         0.0693
     32 H5         -0.0074   -0.1286   -2.1269 H         1 <0>         0.1389
     33 H6         -2.3517   -0.7050    1.3627 H         1 <0>         0.1319
     34 H7         -4.5488   -0.2058    2.3526 H         1 <0>         0.1300
     35 H8         -0.4313    1.2725    4.6283 H         1 <0>         0.1337
     36 H9         -3.7001    2.1207    6.2596 H         1 <0>         0.0858
     37 H10        -0.8768    1.0929    6.7975 H         1 <0>         0.0585
     38 H11        -1.9857    1.7670    8.0158 H         1 <0>         0.0582
     39 H12        -2.3862    0.2382    7.1969 H         1 <0>         0.0549
     40 H13        -2.5244    3.9253    5.0309 H         1 <0>         0.0562
     41 H14        -2.0663    3.9201    6.7509 H         1 <0>         0.0577
     42 H15        -0.9575    3.2460    5.5326 H         1 <0>         0.0574
     43 H16        -5.2630    0.4132    5.1965 H         1 <0>         0.3834
     44 H17         1.0799   -3.0779    2.7890 H         1 <0>         0.0794
     45 H18        -0.3878   -2.2128    3.3045 H         1 <0>         0.0582
     46 H19        -0.5259   -3.7518    2.4210 H         1 <0>         0.1007
     47 H20         0.2056   -5.9556   -1.3706 H         1 <0>         0.1568
@<TRIPOS>BOND
     1    1    2 1
     2    1   29 1
     3    1   30 1
     4    1   31 1
     5    2    7 ar
     6    2    3 ar
     7    3    4 ar
     8    3   32 1
     9    4   24 1
    10    4    5 ar
    11    5    6 ar
    12    5   20 1
    13    6    7 ar
    14    6   19 1
    15    7    8 1
    16    8    9 1
    17    9   14 ar
    18    9   10 ar
    19   10   11 ar
    20   10   33 1
    21   11   12 ar
    22   11   34 1
    23   12   13 ar
    24   12   18 1
    25   13   14 ar
    26   13   15 1
    27   14   35 1
    28   15   16 1
    29   15   17 1
    30   15   36 1
    31   16   37 1
    32   16   38 1
    33   16   39 1
    34   17   40 1
    35   17   41 1
    36   17   42 1
    37   18   43 1
    38   19   44 1
    39   19   45 1
    40   19   46 1
    41   20   21 2
    42   20   22 1
    43   22   23 2
    44   22   47 1
    45   23   24 1
    46   23   26 1
    47   24   25 1
    48   26   27 2
    49   26   28 1
@<TRIPOS>MOLECULE
CHEMBL263630
   45    47     0     0     0
SMALL
USER_CHARGES

@<TRIPOS>ATOM
      1 C1         -0.0187    1.5258    0.0104 C.3       1 <0>        -0.1440
      2 C2          0.0021   -0.0041    0.0020 C.3       1 <0>        -0.0567
      3 C3          0.7421   -0.5109    1.2415 C.3       1 <0>        -0.1458
      4 C4         -1.4117   -0.5257    0.0127 C.ar      1 <0>        -0.0593
      5 C5         -2.2586   -0.2044    1.0558 C.ar      1 <0>        -0.1150
      6 C6         -3.5600   -0.6842    1.0654 C.ar      1 <0>         0.1206
      7 C7         -4.0111   -1.4867    0.0273 C.ar      1 <0>        -0.1785
      8 C8         -3.1643   -1.8077   -1.0153 C.ar      1 <0>        -0.0998
      9 C9         -1.8644   -1.3235   -1.0275 C.ar      1 <0>         0.0802
     10 O1         -1.0324   -1.6351   -2.0569 O.3       1 <0>        -0.4920
     11 O2         -4.3934   -0.3684    2.0921 O.3       1 <0>        -0.2458
     12 C10        -5.6598   -0.8604    2.0603 C.ar      1 <0>         0.1518
     13 C11        -6.6711   -0.1377    1.4427 C.ar      1 <0>        -0.1114
     14 C12        -7.9580   -0.6405    1.4119 C.ar      1 <0>        -0.0495
     15 C13        -8.2386   -1.8621    1.9956 C.ar      1 <0>        -0.0800
     16 C14        -7.2332   -2.5840    2.6119 C.ar      1 <0>        -0.0558
     17 C15        -5.9432   -2.0890    2.6403 C.ar      1 <0>        -0.1118
     18 I1         -4.4187   -3.1879    3.5663 I         1 <0>         0.0020
     19 C16        -9.6430   -2.4076    1.9603 C.3       1 <0>        -0.0801
     20 C17        -9.8295   -3.2549    0.7001 C.3       1 <0>         0.0949
     21 C18       -11.2295   -3.8338    0.6490 C.2       1 <0>         0.5304
     22 O3        -12.2742   -3.2206    0.6023 O.2       1 <0>        -0.4570
     23 N1        -11.0712   -5.1721    0.6656 N.am      1 <0>        -0.6785
     24 C19        -9.7792   -5.5156    0.7194 C.2       1 <0>         0.7043
     25 O4         -9.3863   -6.6655    0.7435 O.2       1 <0>        -0.5350
     26 N2         -8.9637   -4.4460    0.7435 N.am      1 <0>        -0.7233
     27 I2         -6.2472    1.7137    0.5586 I         1 <0>         0.0028
     28 H1          1.0039    1.9031    0.0027 H         1 <0>         0.0608
     29 H2         -0.5459    1.8868   -0.8726 H         1 <0>         0.0571
     30 H3         -0.5289    1.8773    0.9072 H         1 <0>         0.0574
     31 H4          0.5123   -0.3556   -0.8948 H         1 <0>         0.0886
     32 H5          0.2319   -0.1594    2.1383 H         1 <0>         0.0582
     33 H6          0.7568   -1.6008    1.2356 H         1 <0>         0.0550
     34 H7          1.7647   -0.1336    1.2338 H         1 <0>         0.0612
     35 H8         -1.9072    0.4200    1.8639 H         1 <0>         0.1371
     36 H9         -5.0243   -1.8606    0.0348 H         1 <0>         0.1232
     37 H10        -3.5154   -2.4324   -1.8233 H         1 <0>         0.1326
     38 H11        -0.5228   -2.4453   -1.9194 H         1 <0>         0.3875
     39 H12        -8.7454   -0.0784    0.9318 H         1 <0>         0.1485
     40 H13        -7.4553   -3.5376    3.0676 H         1 <0>         0.1455
     41 H14        -9.8152   -3.0249    2.8420 H         1 <0>         0.0960
     42 H15       -10.3536   -1.5812    1.9509 H         1 <0>         0.1124
     43 H16        -9.6237   -2.6636   -0.1922 H         1 <0>         0.1346
     44 H17       -11.8035   -5.8077    0.6419 H         1 <0>         0.4363
     45 H18        -7.9945   -4.4569    0.7818 H         1 <0>         0.4406
@<TRIPOS>BOND
     1    1    2 1
     2    1   28 1
     3    1   29 1
     4    1   30 1
     5    2    3 1
     6    2    4 1
     7    2   31 1
     8    3   32 1
     9    3   33 1
    10    3   34 1
    11    4    9 ar
    12    4    5 ar
    13    5    6 ar
    14    5   35 1
    15    6    7 ar
    16    6   11 1
    17    7    8 ar
    18    7   36 1
    19    8    9 ar
    20    8   37 1
    21    9   10 1
    22   10   38 1
    23   11   12 1
    24   12   17 ar
    25   12   13 ar
    26   13   14 ar
    27   13   27 1
    28   14   15 ar
    29   14   39 1
    30   15   16 ar
    31   15   19 1
    32   16   17 ar
    33   16   40 1
    34   17   18 1
    35   19   20 1
    36   19   41 1
    37   19   42 1
    38   20   26 1
    39   20   21 1
    40   20   43 1
    41   21   22 2
    42   21   23 am
    43   23   24 am
    44   23   44 1
    45   24   25 2
    46   24   26 am
    47   26   45 1
@<TRIPOS>MOLECULE
CHEMBL263630__1
   45    47     0     0     0
SMALL
USER_CHARGES

@<TRIPOS>ATOM
      1 C1         -0.0187    1.5258    0.0104 C.3       1 <0>        -0.1441
      2 C2          0.0021   -0.0041    0.0020 C.3       1 <0>        -0.0567
      3 C3          0.7421   -0.5109    1.2415 C.3       1 <0>        -0.1457
      4 C4         -1.4117   -0.5257    0.0127 C.ar      1 <0>        -0.0593
      5 C5         -2.2586   -0.2044    1.0558 C.ar      1 <0>        -0.1150
      6 C6         -3.5600   -0.6842    1.0654 C.ar      1 <0>         0.1206
      7 C7         -4.0111   -1.4867    0.0273 C.ar      1 <0>        -0.1786
      8 C8         -3.1643   -1.8077   -1.0153 C.ar      1 <0>        -0.0998
      9 C9         -1.8644   -1.3235   -1.0275 C.ar      1 <0>         0.0802
     10 O1         -1.0324   -1.6351   -2.0569 O.3       1 <0>        -0.4919
     11 O2         -4.3934   -0.3684    2.0921 O.3       1 <0>        -0.2458
     12 C10        -5.6598   -0.8604    2.0603 C.ar      1 <0>         0.1518
     13 C11        -6.6711   -0.1377    1.4427 C.ar      1 <0>        -0.1117
     14 C12        -7.9580   -0.6405    1.4119 C.ar      1 <0>        -0.0557
     15 C13        -8.2386   -1.8621    1.9956 C.ar      1 <0>        -0.0800
     16 C14        -7.2332   -2.5840    2.6119 C.ar      1 <0>        -0.0497
     17 C15        -5.9432   -2.0890    2.6403 C.ar      1 <0>        -0.1114
     18 I1         -4.4187   -3.1879    3.5663 I         1 <0>         0.0016
     19 C16        -9.6430   -2.4076    1.9603 C.3       1 <0>        -0.0801
     20 C17        -9.8295   -3.2549    0.7001 C.3       1 <0>         0.0950
     21 C18       -11.2419   -3.8006    0.6285 C.2       1 <0>         0.5304
     22 O3        -11.7807   -4.5440    1.4203 O.2       1 <0>        -0.4573
     23 N1        -11.7743   -3.2869   -0.4979 N.am      1 <0>        -0.6784
     24 C19       -10.9037   -2.5007   -1.1413 C.2       1 <0>         0.7041
     25 O4        -11.1542   -1.9252   -2.1821 O.2       1 <0>        -0.5346
     26 N2         -9.7198   -2.4187   -0.5077 N.am      1 <0>        -0.7233
     27 I2         -6.2472    1.7137    0.5586 I         1 <0>         0.0031
     28 H1          1.0039    1.9031    0.0027 H         1 <0>         0.0608
     29 H2         -0.5459    1.8868   -0.8726 H         1 <0>         0.0571
     30 H3         -0.5289    1.8773    0.9072 H         1 <0>         0.0574
     31 H4          0.5123   -0.3556   -0.8948 H         1 <0>         0.0886
     32 H5          0.2319   -0.1594    2.1383 H         1 <0>         0.0582
     33 H6          0.7568   -1.6008    1.2356 H         1 <0>         0.0550
     34 H7          1.7647   -0.1336    1.2338 H         1 <0>         0.0612
     35 H8         -1.9072    0.4200    1.8639 H         1 <0>         0.1371
     36 H9         -5.0243   -1.8606    0.0348 H         1 <0>         0.1232
     37 H10        -3.5154   -2.4324   -1.8233 H         1 <0>         0.1326
     38 H11        -0.5228   -2.4453   -1.9194 H         1 <0>         0.3873
     39 H12        -8.7454   -0.0784    0.9318 H         1 <0>         0.1455
     40 H13        -7.4553   -3.5376    3.0676 H         1 <0>         0.1484
     41 H14        -9.8152   -3.0249    2.8420 H         1 <0>         0.1124
     42 H15       -10.3536   -1.5812    1.9509 H         1 <0>         0.0960
     43 H16        -9.1009   -4.0653    0.6729 H         1 <0>         0.1345
     44 H17       -12.6770   -3.4655   -0.8046 H         1 <0>         0.4363
     45 H18        -8.9451   -1.9081   -0.7907 H         1 <0>         0.4407
@<TRIPOS>BOND
     1    1    2 1
     2    1   28 1
     3    1   29 1
     4    1   30 1
     5    2    3 1
     6    2    4 1
     7    2   31 1
     8    3   32 1
     9    3   33 1
    10    3   34 1
    11    4    9 ar
    12    4    5 ar
    13    5    6 ar
    14    5   35 1
    15    6    7 ar
    16    6   11 1
    17    7    8 ar
    18    7   36 1
    19    8    9 ar
    20    8   37 1
    21    9   10 1
    22   10   38 1
    23   11   12 1
    24   12   17 ar
    25   12   13 ar
    26   13   14 ar
    27   13   27 1
    28   14   15 ar
    29   14   39 1
    30   15   16 ar
    31   15   19 1
    32   16   17 ar
    33   16   40 1
    34   17   18 1
    35   19   20 1
    36   19   41 1
    37   19   42 1
    38   20   26 1
    39   20   21 1
    40   20   43 1
    41   21   22 2
    42   21   23 am
    43   23   24 am
    44   23   44 1
    45   24   25 2
    46   24   26 am
    47   26   45 1
@<TRIPOS>MOLECULE
CHEMBL340158
   54    57     0     0     0
SMALL
USER_CHARGES

@<TRIPOS>ATOM
      1 C1         -0.1112    1.2061    0.9653 C.ar      1 <0>        -0.1204
      2 C2          1.0271    1.8220    1.4482 C.ar      1 <0>        -0.1212
      3 C3          2.2353    1.1413    1.4523 C.ar      1 <0>         0.1834
      4 C4          2.3012   -0.1581    0.9708 C.ar      1 <0>        -0.6712
      5 C5          1.1635   -0.7739    0.4875 C.ar      1 <0>        -0.0216
      6 C6         -0.0456   -0.0933    0.4843 C.ar      1 <0>         0.0954
      7 O1         -1.1659   -0.6998    0.0093 O.3       1 <0>        -0.2333
      8 C7         -2.3285    0.0048    0.0248 C.ar      1 <0>         0.1033
      9 C8         -3.1590   -0.0507    1.1362 C.ar      1 <0>        -0.0254
     10 C9         -4.3404    0.6652    1.1522 C.ar      1 <0>        -0.0788
     11 C10        -4.6975    1.4405    0.0565 C.ar      1 <0>         0.1877
     12 C11        -3.8665    1.4958   -1.0552 C.ar      1 <0>        -0.0735
     13 C12        -2.6824    0.7842   -1.0684 C.ar      1 <0>        -0.0223
     14 Cl1        -1.6404    0.8589   -2.4548 Cl        1 <0>        -0.0158
     15 N1         -5.8953    2.1659    0.0723 N.am      1 <0>        -0.4047
     16 C13        -6.7346    2.0840   -0.9754 C.2       1 <0>         0.6842
     17 O2         -6.4421    1.3811   -1.9234 O.2       1 <0>        -0.5098
     18 N2         -7.8939    2.7682   -0.9901 N.am      1 <0>        -0.6530
     19 H1         -8.4885    2.6980   -1.7533 H         1 <0>         0.4404
     20 C14        -8.2295    3.5510    0.0561 C.2       1 <0>         0.5164
     21 O3         -9.2764    4.1720    0.0502 O.2       1 <0>        -0.4652
     22 C15        -7.3185    3.6442    1.1997 C.2       1 <0>         0.0702
     23 N3         -6.2060    2.9623    1.1809 N.2       1 <0>        -0.1689
     24 Cl2        -2.7129   -1.0201    2.5055 Cl        1 <0>        -0.0160
     25 S1          3.8365   -1.0226    0.9755 S.o2      1 <0>         2.7038
     26 O4          4.3874   -0.8649    2.2758 O.2       1 <0>        -0.9507
     27 O5          3.5855   -2.2992    0.4042 O.2       1 <0>        -0.9568
     28 N4          4.8488   -0.2283   -0.0669 N.pl3     1 <0>        -1.1080
     29 C16         5.2792    1.1402    0.2301 C.3       1 <0>         0.1514
     30 C17         4.3593    2.1310   -0.4863 C.3       1 <0>        -0.1309
     31 C18         4.8088    3.5602   -0.1761 C.3       1 <0>        -0.1114
     32 C19         6.2470    3.7587   -0.6590 C.3       1 <0>        -0.1240
     33 C20         7.1668    2.7679    0.0575 C.3       1 <0>        -0.1167
     34 C21         6.7174    1.3387   -0.2528 C.3       1 <0>        -0.1250
     35 O6          3.3557    1.7477    1.9277 O.3       1 <0>        -0.4902
     36 H2         -1.0530    1.7347    0.9663 H         1 <0>         0.1358
     37 H3          0.9761    2.8339    1.8224 H         1 <0>         0.1459
     38 H4          1.2149   -1.7852    0.1121 H         1 <0>         0.1599
     39 H5         -4.9866    0.6218    2.0166 H         1 <0>         0.1602
     40 H6         -4.1439    2.0986   -1.9073 H         1 <0>         0.1577
     41 H7         -7.5663    4.2646    2.0482 H         1 <0>         0.2343
     42 H8          5.1568   -0.6691   -0.8742 H         1 <0>         0.4184
     43 H9          5.2301    1.3112    1.3055 H         1 <0>         0.1091
     44 H10         4.4084    1.9600   -1.5617 H         1 <0>         0.0591
     45 H11         3.3348    1.9895   -0.1423 H         1 <0>         0.0728
     46 H12         4.1535    4.2660   -0.6865 H         1 <0>         0.0595
     47 H13         4.7597    3.7311    0.8993 H         1 <0>         0.0702
     48 H14         6.2960    3.5877   -1.7344 H         1 <0>         0.0604
     49 H15         6.5672    4.7769   -0.4380 H         1 <0>         0.0622
     50 H16         8.1914    2.9094   -0.2865 H         1 <0>         0.0655
     51 H17         7.1177    2.9389    1.1328 H         1 <0>         0.0664
     52 H18         7.3727    0.6329    0.2576 H         1 <0>         0.0701
     53 H19         6.7664    1.1678   -1.3281 H         1 <0>         0.0669
     54 H20         3.5034    1.6148    2.8741 H         1 <0>         0.4045
@<TRIPOS>BOND
     1    1    6 ar
     2    1    2 ar
     3    1   36 1
     4    2    3 ar
     5    2   37 1
     6    3    4 ar
     7    3   35 1
     8    4    5 ar
     9    4   25 1
    10    5    6 ar
    11    5   38 1
    12    6    7 1
    13    7    8 1
    14    8   13 ar
    15    8    9 ar
    16    9   10 ar
    17    9   24 1
    18   10   11 ar
    19   10   39 1
    20   11   12 ar
    21   11   15 1
    22   12   13 ar
    23   12   40 1
    24   13   14 1
    25   15   23 1
    26   15   16 am
    27   16   17 2
    28   16   18 am
    29   18   19 1
    30   18   20 am
    31   20   21 2
    32   20   22 1
    33   22   23 2
    34   22   41 1
    35   25   26 2
    36   25   27 2
    37   25   28 1
    38   28   29 1
    39   28   42 1
    40   29   34 1
    41   29   30 1
    42   29   43 1
    43   30   31 1
    44   30   44 1
    45   30   45 1
    46   31   32 1
    47   31   46 1
    48   31   47 1
    49   32   33 1
    50   32   48 1
    51   32   49 1
    52   33   34 1
    53   33   50 1
    54   33   51 1
    55   34   52 1
    56   34   53 1
    57   35   54 1
@<TRIPOS>MOLECULE
CHEMBL340158__1
   53    56     0     0     0
SMALL
USER_CHARGES

@<TRIPOS>ATOM
      1 C1         -0.1112    1.2061    0.9653 C.ar      1 <0>        -0.0898
      2 C2          1.0271    1.8220    1.4482 C.ar      1 <0>        -0.2211
      3 C3          2.2353    1.1413    1.4523 C.ar      1 <0>         0.3337
      4 C4          2.3012   -0.1581    0.9708 C.ar      1 <0>        -0.7941
      5 C5          1.1635   -0.7739    0.4875 C.ar      1 <0>         0.0166
      6 C6         -0.0456   -0.0933    0.4843 C.ar      1 <0>        -0.0396
      7 O1         -1.1659   -0.6998    0.0093 O.3       1 <0>        -0.2514
      8 C7         -2.3285    0.0048    0.0248 C.ar      1 <0>         0.1436
      9 C8         -3.1590   -0.0507    1.1362 C.ar      1 <0>        -0.0345
     10 C9         -4.3404    0.6652    1.1522 C.ar      1 <0>        -0.0790
     11 C10        -4.6975    1.4405    0.0565 C.ar      1 <0>         0.1604
     12 C11        -3.8665    1.4958   -1.0552 C.ar      1 <0>        -0.0733
     13 C12        -2.6824    0.7842   -1.0684 C.ar      1 <0>        -0.0312
     14 Cl1        -1.6404    0.8589   -2.4548 Cl        1 <0>        -0.0216
     15 N1         -5.8953    2.1659    0.0723 N.am      1 <0>        -0.3954
     16 C13        -6.7346    2.0840   -0.9754 C.2       1 <0>         0.6817
     17 O2         -6.4421    1.3811   -1.9234 O.2       1 <0>        -0.5104
     18 N2         -7.8939    2.7682   -0.9901 N.am      1 <0>        -0.6538
     19 H1         -8.4885    2.6980   -1.7533 H         1 <0>         0.4374
     20 C14        -8.2295    3.5510    0.0561 C.2       1 <0>         0.5193
     21 O3         -9.2764    4.1720    0.0502 O.2       1 <0>        -0.4763
     22 C15        -7.3185    3.6442    1.1997 C.2       1 <0>         0.0554
     23 N3         -6.2060    2.9623    1.1809 N.2       1 <0>        -0.1604
     24 Cl2        -2.7129   -1.0201    2.5055 Cl        1 <0>        -0.0210
     25 S1          3.8365   -1.0226    0.9755 S.o2      1 <0>         2.7156
     26 O4          4.3874   -0.8649    2.2758 O.2       1 <0>        -0.9659
     27 O5          3.5855   -2.2992    0.4042 O.2       1 <0>        -1.0027
     28 N4          4.8488   -0.2283   -0.0669 N.pl3     1 <0>        -1.1173
     29 C16         5.2792    1.1402    0.2301 C.3       1 <0>         0.1563
     30 C17         4.3593    2.1310   -0.4863 C.3       1 <0>        -0.1260
     31 C18         4.8088    3.5602   -0.1761 C.3       1 <0>        -0.1087
     32 C19         6.2470    3.7587   -0.6590 C.3       1 <0>        -0.1189
     33 C20         7.1668    2.7679    0.0575 C.3       1 <0>        -0.1139
     34 C21         6.7174    1.3387   -0.2528 C.3       1 <0>        -0.1240
     35 O6          3.3557    1.7477    1.9277 O.3       1 <0>        -0.6765
     36 H2         -1.0530    1.7347    0.9663 H         1 <0>         0.0985
     37 H3          0.9761    2.8339    1.8224 H         1 <0>         0.1087
     38 H4          1.2149   -1.7852    0.1121 H         1 <0>         0.1230
     39 H5         -4.9866    0.6218    2.0166 H         1 <0>         0.1523
     40 H6         -4.1439    2.0986   -1.9073 H         1 <0>         0.1498
     41 H7         -7.5663    4.2646    2.0482 H         1 <0>         0.2310
     42 H8          5.1568   -0.6691   -0.8742 H         1 <0>         0.4012
     43 H9          5.2301    1.3112    1.3055 H         1 <0>         0.1267
     44 H10         4.4084    1.9600   -1.5617 H         1 <0>         0.0368
     45 H11         3.3348    1.9895   -0.1423 H         1 <0>         0.0904
     46 H12         4.1535    4.2660   -0.6865 H         1 <0>         0.0490
     47 H13         4.7597    3.7311    0.8993 H         1 <0>         0.0748
     48 H14         6.2960    3.5877   -1.7344 H         1 <0>         0.0533
     49 H15         6.5672    4.7769   -0.4380 H         1 <0>         0.0533
     50 H16         8.1914    2.9094   -0.2865 H         1 <0>         0.0552
     51 H17         7.1177    2.9389    1.1328 H         1 <0>         0.0657
     52 H18         7.3727    0.6329    0.2576 H         1 <0>         0.0610
     53 H19         6.7664    1.1678   -1.3281 H         1 <0>         0.0562
@<TRIPOS>BOND
     1    1    6 ar
     2    1    2 ar
     3    1   36 1
     4    2    3 ar
     5    2   37 1
     6    3    4 ar
     7    3   35 1
     8    4    5 ar
     9    4   25 1
    10    5    6 ar
    11    5   38 1
    12    6    7 1
    13    7    8 1
    14    8   13 ar
    15    8    9 ar
    16    9   10 ar
    17    9   24 1
    18   10   11 ar
    19   10   39 1
    20   11   12 ar
    21   11   15 1
    22   12   13 ar
    23   12   40 1
    24   13   14 1
    25   15   23 1
    26   15   16 am
    27   16   17 2
    28   16   18 am
    29   18   19 1
    30   18   20 am
    31   20   21 2
    32   20   22 1
    33   22   23 2
    34   22   41 1
    35   25   26 2
    36   25   27 2
    37   25   28 1
    38   28   29 1
    39   28   42 1
    40   29   34 1
    41   29   30 1
    42   29   43 1
    43   30   31 1
    44   30   44 1
    45   30   45 1
    46   31   32 1
    47   31   46 1
    48   31   47 1
    49   32   33 1
    50   32   48 1
    51   32   49 1
    52   33   34 1
    53   33   50 1
    54   33   51 1
    55   34   52 1
    56   34   53 1
@<TRIPOS>MOLECULE
CHEMBL340158__2
   53    56     0     0     0
SMALL
USER_CHARGES

@<TRIPOS>ATOM
      1 C1         -0.1120    1.2048    0.9687 C.ar      1 <0>        -0.1188
      2 C2          1.0259    1.8200    1.4535 C.ar      1 <0>        -0.1201
      3 C3          2.2342    1.1392    1.4576 C.ar      1 <0>         0.1748
      4 C4          2.3004   -0.1595    0.9744 C.ar      1 <0>        -0.6719
      5 C5          1.1630   -0.7748    0.4897 C.ar      1 <0>        -0.0278
      6 C6         -0.0460   -0.0939    0.4859 C.ar      1 <0>         0.1031
      7 O1         -1.1658   -0.6997    0.0091 O.3       1 <0>        -0.2315
      8 C7         -2.3283    0.0048    0.0247 C.ar      1 <0>         0.0780
      9 C8         -3.1598   -0.0522    1.1354 C.ar      1 <0>        -0.0225
     10 C9         -4.3412    0.6636    1.1514 C.ar      1 <0>        -0.0908
     11 C10        -4.6972    1.4408    0.0565 C.ar      1 <0>         0.2030
     12 C11        -3.8649    1.4980   -1.0544 C.ar      1 <0>        -0.0725
     13 C12        -2.6813    0.7858   -1.0679 C.ar      1 <0>        -0.0194
     14 Cl1        -1.6383    0.8620   -2.4536 Cl        1 <0>        -0.0319
     15 N1         -5.8943    2.1658    0.0722 N.am      1 <0>        -0.3719
     16 C13        -6.7300    2.0806   -0.9784 C.2       1 <0>         0.6174
     17 O2         -6.4369    1.3754   -1.9298 O.2       1 <0>        -0.5684
     18 N2         -7.8789    2.7626   -0.9872 N.2       1 <0>        -0.6226
     19 C14        -8.1852    3.5249    0.0537 C.2       1 <0>         0.4330
     20 O3         -9.3398    4.2275    0.0769 O.3       1 <0>        -0.6434
     21 C15        -7.2824    3.5885    1.1376 C.2       1 <0>         0.0095
     22 N3         -6.1753    2.8960    1.0937 N.2       1 <0>        -0.2237
     23 Cl2        -2.7149   -1.0236    2.5037 Cl        1 <0>        -0.0341
     24 S1          3.8358   -1.0238    0.9786 S.o2      1 <0>         2.7055
     25 O4          4.3861   -0.8679    2.2794 O.2       1 <0>        -0.9542
     26 O5          3.5852   -2.2997    0.4054 O.2       1 <0>        -0.9590
     27 N4          4.8486   -0.2279   -0.0622 N.pl3     1 <0>        -1.1090
     28 C16         5.2786    1.1402    0.2370 C.3       1 <0>         0.1520
     29 C17         4.3590    2.1318   -0.4785 C.3       1 <0>        -0.1324
     30 C18         4.8081    3.5607   -0.1661 C.3       1 <0>        -0.1117
     31 C19         6.2465    3.7600   -0.6480 C.3       1 <0>        -0.1234
     32 C20         7.1661    2.7684    0.0675 C.3       1 <0>        -0.1160
     33 C21         6.7170    1.3395   -0.2449 C.3       1 <0>        -0.1244
     34 O6          3.3541    1.7450    1.9349 O.3       1 <0>        -0.4914
     35 H1         -1.0538    1.7333    0.9696 H         1 <0>         0.1391
     36 H2          0.9746    2.8313    1.8290 H         1 <0>         0.1443
     37 H3          1.2147   -1.7857    0.1132 H         1 <0>         0.1577
     38 H4         -4.9882    0.6186    2.0150 H         1 <0>         0.1555
     39 H5         -4.1415    2.1020   -1.9060 H         1 <0>         0.1574
     40 H6         -7.5070    4.2019    1.9976 H         1 <0>         0.1841
     41 H7          5.1570   -0.6676   -0.8699 H         1 <0>         0.4173
     42 H8          5.2290    1.3097    1.3126 H         1 <0>         0.1091
     43 H9          4.4086    1.9624   -1.5541 H         1 <0>         0.0587
     44 H10         3.3343    1.9898   -0.1352 H         1 <0>         0.0759
     45 H11         4.1530    4.2671   -0.6758 H         1 <0>         0.0603
     46 H12         4.7585    3.7301    0.9095 H         1 <0>         0.0702
     47 H13         6.2962    3.5905   -1.7236 H         1 <0>         0.0599
     48 H14         6.5665    4.7779   -0.4254 H         1 <0>         0.0611
     49 H15         8.1909    2.9104   -0.2758 H         1 <0>         0.0638
     50 H16         7.1165    2.9378    1.1431 H         1 <0>         0.0660
     51 H17         7.3721    0.6331    0.2648 H         1 <0>         0.0687
     52 H18         6.7666    1.1701   -1.3205 H         1 <0>         0.0662
     53 H19         3.5010    1.6107    2.8812 H         1 <0>         0.4013
@<TRIPOS>BOND
     1    1    6 ar
     2    1    2 ar
     3    1   35 1
     4    2    3 ar
     5    2   36 1
     6    3    4 ar
     7    3   34 1
     8    4    5 ar
     9    4   24 1
    10    5    6 ar
    11    5   37 1
    12    6    7 1
    13    7    8 1
    14    8   13 ar
    15    8    9 ar
    16    9   10 ar
    17    9   23 1
    18   10   11 ar
    19   10   38 1
    20   11   12 ar
    21   11   15 1
    22   12   13 ar
    23   12   39 1
    24   13   14 1
    25   15   22 1
    26   15   16 am
    27   16   17 2
    28   16   18 1
    29   18   19 2
    30   19   20 1
    31   19   21 1
    32   21   22 2
    33   21   40 1
    34   24   25 2
    35   24   26 2
    36   24   27 1
    37   27   28 1
    38   27   41 1
    39   28   33 1
    40   28   29 1
    41   28   42 1
    42   29   30 1
    43   29   43 1
    44   29   44 1
    45   30   31 1
    46   30   45 1
    47   30   46 1
    48   31   32 1
    49   31   47 1
    50   31   48 1
    51   32   33 1
    52   32   49 1
    53   32   50 1
    54   33   51 1
    55   33   52 1
    56   34   53 1
@<TRIPOS>MOLECULE
CHEMBL263631
   45    47     0     0     0
SMALL
USER_CHARGES

@<TRIPOS>ATOM
      1 C1         -0.0187    1.5258    0.0104 C.3       1 <0>        -0.1441
      2 C2          0.0021   -0.0041    0.0020 C.3       1 <0>        -0.0568
      3 C3          0.7421   -0.5109    1.2415 C.3       1 <0>        -0.1459
      4 C4         -1.4117   -0.5257    0.0127 C.ar      1 <0>        -0.0600
      5 C5         -2.2586   -0.2044    1.0558 C.ar      1 <0>        -0.1177
      6 C6         -3.5600   -0.6842    1.0654 C.ar      1 <0>         0.1216
      7 C7         -4.0111   -1.4867    0.0273 C.ar      1 <0>        -0.1783
      8 C8         -3.1643   -1.8077   -1.0153 C.ar      1 <0>        -0.1004
      9 C9         -1.8644   -1.3235   -1.0275 C.ar      1 <0>         0.0787
     10 O1         -1.0323   -1.6354   -2.0567 O.3       1 <0>        -0.4920
     11 O2         -4.3934   -0.3684    2.0921 O.3       1 <0>        -0.2421
     12 C10        -5.6599   -0.8604    2.0603 C.ar      1 <0>         0.1411
     13 C11        -6.6714   -0.1378    1.4426 C.ar      1 <0>        -0.0961
     14 C12        -7.9586   -0.6407    1.4119 C.ar      1 <0>        -0.0578
     15 C13        -8.2391   -1.8623    1.9955 C.ar      1 <0>        -0.0756
     16 C14        -7.2337   -2.5842    2.6119 C.ar      1 <0>        -0.0641
     17 C15        -5.9434   -2.0892    2.6404 C.ar      1 <0>        -0.0964
     18 Br1        -4.5673   -3.0815    3.4756 Br        1 <0>        -0.0080
     19 C16        -9.6434   -2.4078    1.9603 C.3       1 <0>        -0.0798
     20 C17        -9.8299   -3.2551    0.7000 C.3       1 <0>         0.0949
     21 C18       -11.2299   -3.8340    0.6490 C.2       1 <0>         0.5304
     22 O3        -12.2747   -3.2208    0.6023 O.2       1 <0>        -0.4571
     23 N1        -11.0717   -5.1723    0.6655 N.am      1 <0>        -0.6785
     24 C19        -9.7797   -5.5158    0.7194 C.2       1 <0>         0.7042
     25 O4         -9.3868   -6.6657    0.7434 O.2       1 <0>        -0.5352
     26 N2         -8.9642   -4.4462    0.7435 N.am      1 <0>        -0.7232
     27 Br2        -6.2889    1.5334    0.6446 Br        1 <0>        -0.0073
     28 H1          1.0039    1.9031    0.0027 H         1 <0>         0.0609
     29 H2         -0.5459    1.8868   -0.8726 H         1 <0>         0.0571
     30 H3         -0.5289    1.8773    0.9072 H         1 <0>         0.0574
     31 H4          0.5123   -0.3556   -0.8948 H         1 <0>         0.0888
     32 H5          0.2319   -0.1594    2.1383 H         1 <0>         0.0582
     33 H6          0.7568   -1.6008    1.2356 H         1 <0>         0.0550
     34 H7          1.7647   -0.1336    1.2338 H         1 <0>         0.0614
     35 H8         -1.9072    0.4200    1.8639 H         1 <0>         0.1376
     36 H9         -5.0243   -1.8606    0.0348 H         1 <0>         0.1243
     37 H10        -3.5154   -2.4324   -1.8233 H         1 <0>         0.1332
     38 H11        -0.5229   -2.4458   -1.9190 H         1 <0>         0.3875
     39 H12        -8.7460   -0.0787    0.9318 H         1 <0>         0.1528
     40 H13        -7.4559   -3.5380    3.0673 H         1 <0>         0.1496
     41 H14        -9.8157   -3.0251    2.8419 H         1 <0>         0.0966
     42 H15       -10.3541   -1.5814    1.9509 H         1 <0>         0.1130
     43 H16        -9.6242   -2.6638   -0.1922 H         1 <0>         0.1350
     44 H17       -11.8040   -5.8079    0.6419 H         1 <0>         0.4364
     45 H18        -7.9950   -4.4571    0.7817 H         1 <0>         0.4410
@<TRIPOS>BOND
     1    1    2 1
     2    1   28 1
     3    1   29 1
     4    1   30 1
     5    2    3 1
     6    2    4 1
     7    2   31 1
     8    3   32 1
     9    3   33 1
    10    3   34 1
    11    4    9 ar
    12    4    5 ar
    13    5    6 ar
    14    5   35 1
    15    6    7 ar
    16    6   11 1
    17    7    8 ar
    18    7   36 1
    19    8    9 ar
    20    8   37 1
    21    9   10 1
    22   10   38 1
    23   11   12 1
    24   12   17 ar
    25   12   13 ar
    26   13   14 ar
    27   13   27 1
    28   14   15 ar
    29   14   39 1
    30   15   16 ar
    31   15   19 1
    32   16   17 ar
    33   16   40 1
    34   17   18 1
    35   19   20 1
    36   19   41 1
    37   19   42 1
    38   20   26 1
    39   20   21 1
    40   20   43 1
    41   21   22 2
    42   21   23 am
    43   23   24 am
    44   23   44 1
    45   24   25 2
    46   24   26 am
    47   26   45 1
@<TRIPOS>MOLECULE
CHEMBL263631__1
   45    47     0     0     0
SMALL
USER_CHARGES

@<TRIPOS>ATOM
      1 C1         -0.0187    1.5258    0.0104 C.3       1 <0>        -0.1442
      2 C2          0.0021   -0.0041    0.0020 C.3       1 <0>        -0.0568
      3 C3          0.7421   -0.5109    1.2415 C.3       1 <0>        -0.1459
      4 C4         -1.4117   -0.5257    0.0127 C.ar      1 <0>        -0.0600
      5 C5         -2.2586   -0.2044    1.0558 C.ar      1 <0>        -0.1177
      6 C6         -3.5600   -0.6842    1.0654 C.ar      1 <0>         0.1216
      7 C7         -4.0111   -1.4867    0.0273 C.ar      1 <0>        -0.1783
      8 C8         -3.1643   -1.8077   -1.0153 C.ar      1 <0>        -0.1004
      9 C9         -1.8644   -1.3235   -1.0275 C.ar      1 <0>         0.0787
     10 O1         -1.0323   -1.6354   -2.0567 O.3       1 <0>        -0.4919
     11 O2         -4.3934   -0.3684    2.0921 O.3       1 <0>        -0.2421
     12 C10        -5.6599   -0.8604    2.0603 C.ar      1 <0>         0.1410
     13 C11        -6.6714   -0.1378    1.4426 C.ar      1 <0>        -0.0964
     14 C12        -7.9586   -0.6407    1.4119 C.ar      1 <0>        -0.0639
     15 C13        -8.2391   -1.8623    1.9955 C.ar      1 <0>        -0.0756
     16 C14        -7.2337   -2.5842    2.6119 C.ar      1 <0>        -0.0580
     17 C15        -5.9434   -2.0892    2.6404 C.ar      1 <0>        -0.0961
     18 Br1        -4.5673   -3.0815    3.4756 Br        1 <0>        -0.0084
     19 C16        -9.6434   -2.4078    1.9603 C.3       1 <0>        -0.0799
     20 C17        -9.8299   -3.2551    0.7000 C.3       1 <0>         0.0949
     21 C18       -11.2423   -3.8008    0.6285 C.2       1 <0>         0.5305
     22 O3        -11.7811   -4.5442    1.4202 O.2       1 <0>        -0.4573
     23 N1        -11.7747   -3.2871   -0.4979 N.am      1 <0>        -0.6785
     24 C19       -10.9041   -2.5009   -1.1413 C.2       1 <0>         0.7041
     25 O4        -11.1547   -1.9254   -2.1821 O.2       1 <0>        -0.5348
     26 N2         -9.7203   -2.4189   -0.5077 N.am      1 <0>        -0.7232
     27 Br2        -6.2889    1.5334    0.6446 Br        1 <0>        -0.0069
     28 H1          1.0039    1.9031    0.0027 H         1 <0>         0.0610
     29 H2         -0.5459    1.8868   -0.8726 H         1 <0>         0.0571
     30 H3         -0.5289    1.8773    0.9072 H         1 <0>         0.0574
     31 H4          0.5123   -0.3556   -0.8948 H         1 <0>         0.0888
     32 H5          0.2319   -0.1594    2.1383 H         1 <0>         0.0582
     33 H6          0.7568   -1.6008    1.2356 H         1 <0>         0.0549
     34 H7          1.7647   -0.1336    1.2338 H         1 <0>         0.0614
     35 H8         -1.9072    0.4200    1.8639 H         1 <0>         0.1376
     36 H9         -5.0243   -1.8606    0.0348 H         1 <0>         0.1243
     37 H10        -3.5154   -2.4324   -1.8233 H         1 <0>         0.1332
     38 H11        -0.5229   -2.4458   -1.9190 H         1 <0>         0.3874
     39 H12        -8.7460   -0.0787    0.9318 H         1 <0>         0.1496
     40 H13        -7.4559   -3.5380    3.0673 H         1 <0>         0.1527
     41 H14        -9.8157   -3.0251    2.8419 H         1 <0>         0.1130
     42 H15       -10.3541   -1.5814    1.9509 H         1 <0>         0.0966
     43 H16        -9.1014   -4.0655    0.6729 H         1 <0>         0.1349
     44 H17       -12.6775   -3.4657   -0.8047 H         1 <0>         0.4364
     45 H18        -8.9456   -1.9083   -0.7907 H         1 <0>         0.4411
@<TRIPOS>BOND
     1    1    2 1
     2    1   28 1
     3    1   29 1
     4    1   30 1
     5    2    3 1
     6    2    4 1
     7    2   31 1
     8    3   32 1
     9    3   33 1
    10    3   34 1
    11    4    9 ar
    12    4    5 ar
    13    5    6 ar
    14    5   35 1
    15    6    7 ar
    16    6   11 1
    17    7    8 ar
    18    7   36 1
    19    8    9 ar
    20    8   37 1
    21    9   10 1
    22   10   38 1
    23   11   12 1
    24   12   17 ar
    25   12   13 ar
    26   13   14 ar
    27   13   27 1
    28   14   15 ar
    29   14   39 1
    30   15   16 ar
    31   15   19 1
    32   16   17 ar
    33   16   40 1
    34   17   18 1
    35   19   20 1
    36   19   41 1
    37   19   42 1
    38   20   26 1
    39   20   21 1
    40   20   43 1
    41   21   22 2
    42   21   23 am
    43   23   24 am
    44   23   44 1
    45   24   25 2
    46   24   26 am
    47   26   45 1
@<TRIPOS>MOLECULE
CHEMBL217221
   54    56     0     0     0
SMALL
USER_CHARGES

@<TRIPOS>ATOM
      1 C1         -0.0187    1.5258    0.0104 C.3       1 <0>        -0.1436
      2 C2          0.0021   -0.0041    0.0020 C.3       1 <0>        -0.0536
      3 C3          0.7421   -0.5109    1.2415 C.3       1 <0>        -0.1455
      4 C4         -1.4117   -0.5257    0.0127 C.ar      1 <0>        -0.0626
      5 C5         -2.2576   -0.2032    1.0572 C.ar      1 <0>        -0.1193
      6 C6         -3.5622   -0.6792    1.0759 C.ar      1 <0>         0.1305
      7 C7         -4.0249   -1.4808    0.0471 C.ar      1 <0>        -0.1711
      8 C8         -3.1762   -1.8108   -1.0122 C.ar      1 <0>        -0.0392
      9 C9         -1.8619   -1.3221   -1.0267 C.ar      1 <0>         0.0868
     10 O1         -1.0306   -1.6339   -2.0551 O.3       1 <0>        -0.4873
     11 C10        -3.6609   -2.6633   -2.1107 C.2       1 <0>        -0.0901
     12 C11        -4.9222   -3.1258   -2.0958 C.2       1 <0>        -0.1053
     13 C12        -5.4070   -3.9786   -3.1946 C.ar      1 <0>        -0.0119
     14 C13        -4.5675   -4.3247   -4.2629 C.ar      1 <0>        -0.1711
     15 C14        -5.0634   -5.1254   -5.2694 C.ar      1 <0>         0.0966
     16 N1         -6.3079   -5.5637   -5.2365 N.ar      1 <0>        -0.4888
     17 C15        -7.1318   -5.2624   -4.2505 C.ar      1 <0>         0.1046
     18 C16        -6.7193   -4.4721   -3.1991 C.ar      1 <0>        -0.1556
     19 O2         -4.3868   -0.3570    2.1078 O.3       1 <0>        -0.2395
     20 C17        -5.6556   -0.8439    2.0866 C.ar      1 <0>         0.1124
     21 C18        -6.6685   -0.1188    1.4742 C.ar      1 <0>        -0.0916
     22 C19        -7.9579   -0.6168    1.4539 C.ar      1 <0>        -0.0683
     23 C20        -8.2391   -1.8355    2.0431 C.ar      1 <0>        -0.0430
     24 C21        -7.2323   -2.5597    2.6543 C.ar      1 <0>        -0.0684
     25 C22        -5.9398   -2.0697    2.6724 C.ar      1 <0>        -0.0914
     26 Br1        -4.5620   -3.0646    3.5016 Br        1 <0>        -0.0254
     27 C23        -9.6459   -2.3754    2.0197 C.3       1 <0>        -0.0629
     28 C24        -9.8450   -3.2256    0.7634 C.3       1 <0>        -0.1767
     29 C25       -11.2518   -3.7654    0.7399 C.2       1 <0>         0.4908
     30 O3        -12.0236   -3.4952    1.6442 O.co2     1 <0>        -0.6964
     31 O4        -11.6181   -4.4724   -0.1834 O.co2     1 <0>        -0.7010
     32 Br2        -6.2851    1.5487    0.6691 Br        1 <0>        -0.0243
     33 H1          1.0039    1.9031    0.0027 H         1 <0>         0.0585
     34 H2         -0.5459    1.8868   -0.8726 H         1 <0>         0.0570
     35 H3         -0.5289    1.8773    0.9072 H         1 <0>         0.0577
     36 H4          0.5123   -0.3556   -0.8948 H         1 <0>         0.0876
     37 H5          0.2319   -0.1594    2.1383 H         1 <0>         0.0585
     38 H6          0.7568   -1.6008    1.2356 H         1 <0>         0.0549
     39 H7          1.7647   -0.1336    1.2338 H         1 <0>         0.0590
     40 H8         -1.9021    0.4218    1.8630 H         1 <0>         0.1364
     41 H9         -5.0394   -1.8508    0.0634 H         1 <0>         0.1320
     42 H10        -0.5213   -2.4443   -1.9174 H         1 <0>         0.3843
     43 H11        -3.0024   -2.9167   -2.9284 H         1 <0>         0.1312
     44 H12        -5.5807   -2.8724   -1.2781 H         1 <0>         0.1252
     45 H13        -3.5483   -3.9691   -4.2968 H         1 <0>         0.1346
     46 H14        -4.4247   -5.3977   -6.0966 H         1 <0>         0.1542
     47 H15        -8.1421   -5.6438   -4.2655 H         1 <0>         0.1615
     48 H16        -7.3977   -4.2334   -2.3934 H         1 <0>         0.1421
     49 H17        -8.7464   -0.0531    0.9775 H         1 <0>         0.1483
     50 H18        -7.4550   -3.5111    3.1144 H         1 <0>         0.1483
     51 H19        -9.8142   -2.9894    2.9044 H         1 <0>         0.0813
     52 H20       -10.3532   -1.5461    2.0130 H         1 <0>         0.0813
     53 H21        -9.6767   -2.6115   -0.1214 H         1 <0>         0.0591
     54 H22        -9.1377   -4.0549    0.7700 H         1 <0>         0.0590
@<TRIPOS>BOND
     1    1    2 1
     2    1   33 1
     3    1   34 1
     4    1   35 1
     5    2    3 1
     6    2    4 1
     7    2   36 1
     8    3   37 1
     9    3   38 1
    10    3   39 1
    11    4    9 ar
    12    4    5 ar
    13    5    6 ar
    14    5   40 1
    15    6    7 ar
    16    6   19 1
    17    7    8 ar
    18    7   41 1
    19    8    9 ar
    20    8   11 1
    21    9   10 1
    22   10   42 1
    23   11   12 2
    24   11   43 1
    25   12   13 1
    26   12   44 1
    27   13   18 ar
    28   13   14 ar
    29   14   15 ar
    30   14   45 1
    31   15   16 ar
    32   15   46 1
    33   16   17 ar
    34   17   18 ar
    35   17   47 1
    36   18   48 1
    37   19   20 1
    38   20   25 ar
    39   20   21 ar
    40   21   22 ar
    41   21   32 1
    42   22   23 ar
    43   22   49 1
    44   23   24 ar
    45   23   27 1
    46   24   25 ar
    47   24   50 1
    48   25   26 1
    49   27   28 1
    50   27   51 1
    51   27   52 1
    52   28   29 1
    53   28   53 1
    54   28   54 1
    55   29   30 2
    56   29   31 1
@<TRIPOS>MOLECULE
CHEMBL480313
   45    47     0     0     0
SMALL
USER_CHARGES

@<TRIPOS>ATOM
      1 C1         -0.0187    1.5258    0.0104 C.3       1 <0>        -0.1486
      2 C2          0.0021   -0.0041    0.0020 C.3       1 <0>        -0.0218
      3 C3          0.7421   -0.5109    1.2415 C.3       1 <0>        -0.1426
      4 C4         -1.4333   -0.5336    0.0129 C.3       1 <0>        -0.1431
      5 C5          0.7074   -0.4901   -1.2379 C.ar      1 <0>        -0.0560
      6 C6          1.2165    0.4196   -2.1443 C.ar      1 <0>        -0.1238
      7 C7          1.8662   -0.0278   -3.2853 C.ar      1 <0>         0.1149
      8 C8          2.0046   -1.3890   -3.5160 C.ar      1 <0>        -0.1778
      9 C9          1.4956   -2.2981   -2.6097 C.ar      1 <0>        -0.1005
     10 C10         0.8505   -1.8505   -1.4660 C.ar      1 <0>         0.0849
     11 O1          0.3543   -2.7458   -0.5709 O.3       1 <0>        -0.4886
     12 O2          2.3668    0.8674   -4.1777 O.3       1 <0>        -0.2393
     13 C11         2.9958    0.3842   -5.2817 C.ar      1 <0>         0.1169
     14 C12         4.3630    0.1389   -5.2484 C.ar      1 <0>        -0.0243
     15 C13         5.0053   -0.3514   -6.3666 C.ar      1 <0>        -0.0915
     16 C14         4.2787   -0.6013   -7.5339 C.ar      1 <0>         0.1025
     17 C15         2.9037   -0.3532   -7.5630 C.ar      1 <0>        -0.0734
     18 C16         2.2685    0.1318   -6.4385 C.ar      1 <0>        -0.0161
     19 Cl1         0.5592    0.4333   -6.4707 Cl        1 <0>        -0.0105
     20 N1          4.9111   -1.0867   -8.6441 N.pl3     1 <0>        -0.4991
     21 C17         4.3756   -2.0720   -9.3265 C.2       1 <0>         0.1092
     22 C18         3.1414   -2.8889   -9.2214 C.2       1 <0>         0.3656
     23 C19         3.5508   -3.5895  -10.3774 C.2       1 <0>        -0.0263
     24 O3          2.9980   -4.6066  -11.0818 O.3       1 <0>        -0.4085
     25 C20         4.7401   -2.8450  -10.5395 C.2       1 <0>         0.3347
     26 O4          5.6700   -2.8393  -11.3370 O.2       1 <0>        -0.4755
     27 O5          2.1821   -2.9355   -8.4608 O.3       1 <0>        -0.4562
     28 Cl2         5.2644    0.4504   -3.7979 Cl        1 <0>        -0.0133
     29 H1          1.0039    1.9031    0.0027 H         1 <0>         0.0600
     30 H2         -0.5459    1.8868   -0.8726 H         1 <0>         0.0596
     31 H3         -0.5289    1.8773    0.9072 H         1 <0>         0.0615
     32 H4          0.2319   -0.1594    2.1383 H         1 <0>         0.0569
     33 H5          0.7568   -1.6008    1.2356 H         1 <0>         0.0755
     34 H6          1.7647   -0.1336    1.2338 H         1 <0>         0.0522
     35 H7         -1.9605   -0.1726   -0.8702 H         1 <0>         0.0558
     36 H8         -1.4185   -1.6235    0.0069 H         1 <0>         0.0599
     37 H9         -1.9435   -0.1821    0.9097 H         1 <0>         0.0630
     38 H10         1.1084    1.4791   -1.9647 H         1 <0>         0.1433
     39 H11         2.5101   -1.7375   -4.4045 H         1 <0>         0.1255
     40 H12         1.6030   -3.3577   -2.7895 H         1 <0>         0.1345
     41 H13        -0.5584   -3.0128   -0.7464 H         1 <0>         0.3851
     42 H14         6.0681   -0.5414   -6.3400 H         1 <0>         0.1618
     43 H15         2.3385   -0.5446   -8.4631 H         1 <0>         0.1592
     44 H16         5.7557   -0.7031   -8.9278 H         1 <0>         0.4397
     45 H17         3.5203   -4.8850  -11.8465 H         1 <0>         0.4146
@<TRIPOS>BOND
     1    1    2 1
     2    1   29 1
     3    1   30 1
     4    1   31 1
     5    2    3 1
     6    2    4 1
     7    2    5 1
     8    3   32 1
     9    3   33 1
    10    3   34 1
    11    4   35 1
    12    4   36 1
    13    4   37 1
    14    5   10 ar
    15    5    6 ar
    16    6    7 ar
    17    6   38 1
    18    7    8 ar
    19    7   12 1
    20    8    9 ar
    21    8   39 1
    22    9   10 ar
    23    9   40 1
    24   10   11 1
    25   11   41 1
    26   12   13 1
    27   13   18 ar
    28   13   14 ar
    29   14   15 ar
    30   14   28 1
    31   15   16 ar
    32   15   42 1
    33   16   17 ar
    34   16   20 1
    35   17   18 ar
    36   17   43 1
    37   18   19 1
    38   20   21 2
    39   20   44 1
    40   21   25 1
    41   21   22 1
    42   22   23 2
    43   22   27 1
    44   23   24 1
    45   23   25 1
    46   24   45 1
    47   25   26 2
@<TRIPOS>MOLECULE
CHEMBL594024
   46    49     0     0     0
SMALL
USER_CHARGES

@<TRIPOS>ATOM
      1 C1         -1.7461    1.1607    0.6054 C.ar      1 <0>        -0.0941
      2 C2         -0.9162    2.2645    0.6588 C.ar      1 <0>        -0.1508
      3 C3          0.4523    2.1085    0.5180 C.ar      1 <0>         0.0954
      4 C4          0.9878    0.8465    0.3239 C.ar      1 <0>        -0.1493
      5 C5          0.1561   -0.2558    0.2708 C.ar      1 <0>        -0.0832
      6 C6         -1.2102   -0.0989    0.4115 C.ar      1 <0>        -0.0871
      7 C7         -2.1162   -1.3018    0.3535 C.3       1 <0>        -0.0387
      8 C8         -2.5443   -1.5400   -1.0716 C.ar      1 <0>        -0.0636
      9 C9         -1.9202   -2.5141   -1.8266 C.ar      1 <0>        -0.1179
     10 C10        -2.3142   -2.7333   -3.1384 C.ar      1 <0>         0.1188
     11 C11        -3.3352   -1.9741   -3.6920 C.ar      1 <0>        -0.1761
     12 C12        -3.9589   -1.0004   -2.9371 C.ar      1 <0>        -0.0998
     13 C13        -3.5685   -0.7851   -1.6234 C.ar      1 <0>         0.0839
     14 O1         -4.1865    0.1699   -0.8783 O.3       1 <0>        -0.4915
     15 O2         -1.6998   -3.6916   -3.8816 O.3       1 <0>        -0.2375
     16 C14        -2.1184   -3.8720   -5.1625 C.ar      1 <0>         0.1099
     17 C15        -3.1416   -4.7690   -5.4385 C.ar      1 <0>        -0.0254
     18 C16        -3.5675   -4.9522   -6.7400 C.ar      1 <0>        -0.0793
     19 C17        -2.9719   -4.2390   -7.7724 C.ar      1 <0>         0.1847
     20 C18        -1.9482   -3.3417   -7.4960 C.ar      1 <0>        -0.0740
     21 C19        -1.5264   -3.1550   -6.1937 C.ar      1 <0>        -0.0230
     22 Cl1        -0.2515   -2.0287   -5.8474 Cl        1 <0>        -0.0174
     23 N1         -3.4030   -4.4248   -9.0917 N.am      1 <0>        -0.4038
     24 C20        -2.4971   -4.6440  -10.0613 C.2       1 <0>         0.6840
     25 O3         -1.3148   -4.6776   -9.7795 O.2       1 <0>        -0.5103
     26 N2         -2.8796   -4.8272  -11.3389 N.am      1 <0>        -0.6532
     27 H1         -2.2137   -4.9846  -12.0265 H         1 <0>         0.4401
     28 C21        -4.1886   -4.7926  -11.6637 C.2       1 <0>         0.5166
     29 O4         -4.5420   -4.9582  -12.8167 O.2       1 <0>        -0.4661
     30 C22        -5.1795   -4.5536  -10.6113 C.2       1 <0>         0.0687
     31 N3         -4.7717   -4.3857   -9.3832 N.2       1 <0>        -0.1681
     32 Cl2        -3.8856   -5.6609   -4.1483 Cl        1 <0>        -0.0172
     33 F1          1.2645    3.1869    0.5696 F         1 <0>        -0.1395
     34 H2         -2.8132    1.2816    0.7196 H         1 <0>         0.1375
     35 H3         -1.3351    3.2484    0.8099 H         1 <0>         0.1369
     36 H4          2.0552    0.7237    0.2136 H         1 <0>         0.1362
     37 H5          0.5735   -1.2403    0.1190 H         1 <0>         0.1336
     38 H6         -1.5822   -2.1770    0.7236 H         1 <0>         0.0886
     39 H7         -2.9958   -1.1243    0.9723 H         1 <0>         0.0961
     40 H8         -1.1253   -3.1046   -1.3956 H         1 <0>         0.1395
     41 H9         -3.6418   -2.1445   -4.7135 H         1 <0>         0.1272
     42 H10        -4.7536   -0.4095   -3.3680 H         1 <0>         0.1350
     43 H11        -3.7761    1.0433   -0.9396 H         1 <0>         0.3845
     44 H12        -4.3632   -5.6502   -6.9547 H         1 <0>         0.1590
     45 H13        -1.4847   -2.7872   -8.2985 H         1 <0>         0.1564
     46 H14        -6.2328   -4.5217  -10.8479 H         1 <0>         0.2340
@<TRIPOS>BOND
     1    1    6 ar
     2    1    2 ar
     3    1   34 1
     4    2    3 ar
     5    2   35 1
     6    3    4 ar
     7    3   33 1
     8    4    5 ar
     9    4   36 1
    10    5    6 ar
    11    5   37 1
    12    6    7 1
    13    7    8 1
    14    7   38 1
    15    7   39 1
    16    8   13 ar
    17    8    9 ar
    18    9   10 ar
    19    9   40 1
    20   10   11 ar
    21   10   15 1
    22   11   12 ar
    23   11   41 1
    24   12   13 ar
    25   12   42 1
    26   13   14 1
    27   14   43 1
    28   15   16 1
    29   16   21 ar
    30   16   17 ar
    31   17   18 ar
    32   17   32 1
    33   18   19 ar
    34   18   44 1
    35   19   20 ar
    36   19   23 1
    37   20   21 ar
    38   20   45 1
    39   21   22 1
    40   23   31 1
    41   23   24 am
    42   24   25 2
    43   24   26 am
    44   26   27 1
    45   26   28 am
    46   28   29 2
    47   28   30 1
    48   30   31 2
    49   30   46 1
@<TRIPOS>MOLECULE
CHEMBL594024__1
   45    48     0     0     0
SMALL
USER_CHARGES

@<TRIPOS>ATOM
      1 C1         -1.7526    1.1583    0.6079 C.ar      1 <0>        -0.0943
      2 C2         -0.9245    2.2634    0.6616 C.ar      1 <0>        -0.1513
      3 C3          0.4442    2.1096    0.5205 C.ar      1 <0>         0.0928
      4 C4          0.9817    0.8485    0.3256 C.ar      1 <0>        -0.1491
      5 C5          0.1516   -0.2551    0.2722 C.ar      1 <0>        -0.0829
      6 C6         -1.2149   -0.1003    0.4133 C.ar      1 <0>        -0.0840
      7 C7         -2.1190   -1.3046    0.3548 C.3       1 <0>        -0.0368
      8 C8         -2.5470   -1.5427   -1.0704 C.ar      1 <0>        -0.0674
      9 C9         -1.9216   -2.5154   -1.8259 C.ar      1 <0>        -0.1232
     10 C10        -2.3155   -2.7346   -3.1377 C.ar      1 <0>         0.1261
     11 C11        -3.3378   -1.9768   -3.6908 C.ar      1 <0>        -0.1743
     12 C12        -3.9629   -1.0044   -2.9352 C.ar      1 <0>        -0.0989
     13 C13        -3.5726   -0.7892   -1.6215 C.ar      1 <0>         0.0758
     14 O1         -4.1922    0.1642   -0.8757 O.3       1 <0>        -0.4927
     15 O2         -1.6998   -3.6916   -3.8816 O.3       1 <0>        -0.2359
     16 C14        -2.1183   -3.8720   -5.1624 C.ar      1 <0>         0.0848
     17 C15        -3.1404   -4.7706   -5.4387 C.ar      1 <0>        -0.0226
     18 C16        -3.5662   -4.9538   -6.7399 C.ar      1 <0>        -0.0912
     19 C17        -2.9718   -4.2390   -7.7722 C.ar      1 <0>         0.1999
     20 C18        -1.9494   -3.3401   -7.4955 C.ar      1 <0>        -0.0730
     21 C19        -1.5276   -3.1535   -6.1934 C.ar      1 <0>        -0.0201
     22 Cl1        -0.2544   -2.0254   -5.8468 Cl        1 <0>        -0.0334
     23 N1         -3.4027   -4.4247   -9.0909 N.am      1 <0>        -0.3713
     24 C20        -2.4924   -4.6435  -10.0568 C.2       1 <0>         0.6175
     25 O3         -1.3060   -4.6776   -9.7745 O.2       1 <0>        -0.5689
     26 N2         -2.8784   -4.8242  -11.3231 N.2       1 <0>        -0.6232
     27 C21        -4.1711   -4.7846  -11.6159 C.2       1 <0>         0.4332
     28 O4         -4.5953   -4.9639  -12.8868 O.3       1 <0>        -0.6445
     29 C22        -5.0962   -4.5520  -10.5747 C.2       1 <0>         0.0077
     30 N3         -4.6618   -4.3878   -9.3535 N.2       1 <0>        -0.2226
     31 Cl2        -3.8826   -5.6642   -4.1486 Cl        1 <0>        -0.0353
     32 F1          1.2547    3.1892    0.5724 F         1 <0>        -0.1411
     33 H1         -2.8199    1.2775    0.7224 H         1 <0>         0.1374
     34 H2         -1.3449    3.2466    0.8134 H         1 <0>         0.1357
     35 H3          2.0492    0.7275    0.2150 H         1 <0>         0.1356
     36 H4          0.5706   -1.2388    0.1198 H         1 <0>         0.1341
     37 H5         -1.5836   -2.1791    0.7244 H         1 <0>         0.0871
     38 H6         -2.9988   -1.1288    0.9739 H         1 <0>         0.0940
     39 H7         -1.1257   -3.1050   -1.3955 H         1 <0>         0.1372
     40 H8         -3.6444   -2.1471   -4.7123 H         1 <0>         0.1306
     41 H9         -4.7583   -0.4143   -3.3658 H         1 <0>         0.1333
     42 H10        -3.7832    1.0383   -0.9363 H         1 <0>         0.3810
     43 H11        -4.3608   -5.6529   -6.9548 H         1 <0>         0.1543
     44 H12        -1.4869   -2.7845   -8.2979 H         1 <0>         0.1562
     45 H13        -6.1548   -4.5148  -10.7854 H         1 <0>         0.1838
@<TRIPOS>BOND
     1    1    6 ar
     2    1    2 ar
     3    1   33 1
     4    2    3 ar
     5    2   34 1
     6    3    4 ar
     7    3   32 1
     8    4    5 ar
     9    4   35 1
    10    5    6 ar
    11    5   36 1
    12    6    7 1
    13    7    8 1
    14    7   37 1
    15    7   38 1
    16    8   13 ar
    17    8    9 ar
    18    9   10 ar
    19    9   39 1
    20   10   11 ar
    21   10   15 1
    22   11   12 ar
    23   11   40 1
    24   12   13 ar
    25   12   41 1
    26   13   14 1
    27   14   42 1
    28   15   16 1
    29   16   21 ar
    30   16   17 ar
    31   17   18 ar
    32   17   31 1
    33   18   19 ar
    34   18   43 1
    35   19   20 ar
    36   19   23 1
    37   20   21 ar
    38   20   44 1
    39   21   22 1
    40   23   30 1
    41   23   24 am
    42   24   25 2
    43   24   26 1
    44   26   27 2
    45   27   28 1
    46   27   29 1
    47   29   30 2
    48   29   45 1
@<TRIPOS>MOLECULE
CHEMBL594025
   52    55     0     0     0
SMALL
USER_CHARGES

@<TRIPOS>ATOM
      1 C1         -1.0234    1.3051    0.1204 C.3       1 <0>        -0.1147
      2 C2         -0.4798   -0.0990    0.0549 C.ar      1 <0>        -0.0671
      3 C3         -0.4765   -0.7823   -1.1444 C.ar      1 <0>        -0.0913
      4 C4          0.0246   -2.0764   -1.2047 C.ar      1 <0>         0.1644
      5 C5          0.5220   -2.6821   -0.0579 C.ar      1 <0>        -0.0979
      6 C6          0.5181   -1.9977    1.1408 C.ar      1 <0>        -0.0709
      7 C7          0.0225   -0.7026    1.1992 C.ar      1 <0>         0.0858
      8 O1          0.0245   -0.0270    2.3785 O.3       1 <0>        -0.2482
      9 C8         -1.0657   -0.1434    3.1826 C.ar      1 <0>         0.1180
     10 C9         -2.1338   -0.9385    2.7925 C.ar      1 <0>        -0.1787
     11 C10        -3.2408   -1.0571    3.6096 C.ar      1 <0>        -0.1023
     12 C11        -3.2852   -0.3809    4.8201 C.ar      1 <0>         0.0814
     13 C12        -2.2176    0.4139    5.2101 C.ar      1 <0>        -0.0659
     14 C13        -1.1077    0.5281    4.3956 C.ar      1 <0>        -0.1263
     15 C14        -2.2660    1.1484    6.5251 C.3       1 <0>        -0.0331
     16 C15        -3.0924    2.3992    6.3717 C.ar      1 <0>        -0.0906
     17 C16        -2.4892    3.5832    5.9902 C.ar      1 <0>        -0.0845
     18 C17        -3.2462    4.7307    5.8488 C.ar      1 <0>        -0.1554
     19 C18        -4.6092    4.6943    6.0894 C.ar      1 <0>         0.0957
     20 C19        -5.2123    3.5080    6.4714 C.ar      1 <0>        -0.1555
     21 C20        -4.4542    2.3605    6.6071 C.ar      1 <0>        -0.0701
     22 F1         -5.3501    5.8157    5.9519 F         1 <0>        -0.1409
     23 O2         -4.3756   -0.4969    5.6241 O.3       1 <0>        -0.4908
     24 C21         1.0573   -2.6548    2.3852 C.3       1 <0>        -0.1140
     25 N1          0.0278   -2.7704   -2.4211 N.am      1 <0>        -0.4003
     26 C22         0.5135   -2.1739   -3.5242 C.2       1 <0>         0.6818
     27 O3          0.9435   -1.0389   -3.4511 O.2       1 <0>        -0.5135
     28 N2          0.5314   -2.8145   -4.7081 N.am      1 <0>        -0.6548
     29 H1          0.8854   -2.3703   -5.4943 H         1 <0>         0.4381
     30 C23         0.0575   -4.0742   -4.8016 C.2       1 <0>         0.5170
     31 O4          0.0711   -4.6601   -5.8685 O.2       1 <0>        -0.4715
     32 C24        -0.4732   -4.7285   -3.6030 C.2       1 <0>         0.0586
     33 N3         -0.4693   -4.0782   -2.4717 N.2       1 <0>        -0.1661
     34 H2         -0.2206    2.0151   -0.0778 H         1 <0>         0.0821
     35 H3         -1.8081    1.4261   -0.6264 H         1 <0>         0.0726
     36 H4         -1.4348    1.4895    1.1128 H         1 <0>         0.0722
     37 H5         -0.8637   -0.3110   -2.0357 H         1 <0>         0.1380
     38 H6          0.9114   -3.6884   -0.1040 H         1 <0>         0.1403
     39 H7         -2.0995   -1.4644    1.8498 H         1 <0>         0.1308
     40 H8         -4.0722   -1.6759    3.3060 H         1 <0>         0.1328
     41 H9         -0.2745    1.1435    4.7013 H         1 <0>         0.1374
     42 H10        -2.7151    0.5069    7.2832 H         1 <0>         0.0879
     43 H11        -1.2541    1.4165    6.8289 H         1 <0>         0.0863
     44 H12        -1.4260    3.6114    5.8029 H         1 <0>         0.1312
     45 H13        -2.7747    5.6556    5.5511 H         1 <0>         0.1346
     46 H14        -6.2753    3.4785    6.6597 H         1 <0>         0.1345
     47 H15        -4.9251    1.4340    6.9008 H         1 <0>         0.1395
     48 H16        -4.3211   -1.2250    6.2581 H         1 <0>         0.3861
     49 H17         2.1224   -2.4418    2.4762 H         1 <0>         0.0806
     50 H18         0.5330   -2.2654    3.2580 H         1 <0>         0.0720
     51 H19         0.9064   -3.7324    2.3216 H         1 <0>         0.0738
     52 H20        -0.8578   -5.7364   -3.6540 H         1 <0>         0.2309
@<TRIPOS>BOND
     1    1    2 1
     2    1   34 1
     3    1   35 1
     4    1   36 1
     5    2    7 ar
     6    2    3 ar
     7    3    4 ar
     8    3   37 1
     9    4    5 ar
    10    4   25 1
    11    5    6 ar
    12    5   38 1
    13    6    7 ar
    14    6   24 1
    15    7    8 1
    16    8    9 1
    17    9   14 ar
    18    9   10 ar
    19   10   11 ar
    20   10   39 1
    21   11   12 ar
    22   11   40 1
    23   12   13 ar
    24   12   23 1
    25   13   14 ar
    26   13   15 1
    27   14   41 1
    28   15   16 1
    29   15   42 1
    30   15   43 1
    31   16   21 ar
    32   16   17 ar
    33   17   18 ar
    34   17   44 1
    35   18   19 ar
    36   18   45 1
    37   19   20 ar
    38   19   22 1
    39   20   21 ar
    40   20   46 1
    41   21   47 1
    42   23   48 1
    43   24   49 1
    44   24   50 1
    45   24   51 1
    46   25   33 1
    47   25   26 am
    48   26   27 2
    49   26   28 am
    50   28   29 1
    51   28   30 am
    52   30   31 2
    53   30   32 1
    54   32   33 2
    55   32   52 1
@<TRIPOS>MOLECULE
CHEMBL594025__1
   51    54     0     0     0
SMALL
USER_CHARGES

@<TRIPOS>ATOM
      1 C1         -1.0273    1.3035    0.1213 C.3       1 <0>        -0.1092
      2 C2         -0.4817   -0.0997    0.0553 C.ar      1 <0>        -0.0719
      3 C3         -0.4784   -0.7829   -1.1439 C.ar      1 <0>        -0.0897
      4 C4          0.0246   -2.0766   -1.2046 C.ar      1 <0>         0.1796
      5 C5          0.5239   -2.6815   -0.0579 C.ar      1 <0>        -0.1089
      6 C6          0.5200   -1.9971    1.1406 C.ar      1 <0>        -0.0764
      7 C7          0.0225   -0.7026    1.1993 C.ar      1 <0>         0.0621
      8 O1          0.0241   -0.0273    2.3786 O.3       1 <0>        -0.2462
      9 C8         -1.0653   -0.1457    3.1834 C.ar      1 <0>         0.1249
     10 C9         -2.1323   -0.9426    2.7939 C.ar      1 <0>        -0.1770
     11 C10        -3.2388   -1.0627    3.6114 C.ar      1 <0>        -0.1013
     12 C11        -3.2836   -0.3867    4.8220 C.ar      1 <0>         0.0732
     13 C12        -2.2174    0.4102    5.2112 C.ar      1 <0>        -0.0696
     14 C13        -1.1078    0.5256    4.3964 C.ar      1 <0>        -0.1319
     15 C14        -2.2664    1.1448    6.5261 C.3       1 <0>        -0.0313
     16 C15        -3.0953    2.3940    6.3730 C.ar      1 <0>        -0.0874
     17 C16        -2.4946    3.5790    5.9909 C.ar      1 <0>        -0.0842
     18 C17        -3.2539    4.7251    5.8497 C.ar      1 <0>        -0.1552
     19 C18        -4.6167    4.6861    6.0911 C.ar      1 <0>         0.0931
     20 C19        -5.2173    3.4987    6.4738 C.ar      1 <0>        -0.1560
     21 C20        -4.4568    2.3527    6.6092 C.ar      1 <0>        -0.0704
     22 F1         -5.3599    5.8060    5.9539 F         1 <0>        -0.1426
     23 O2         -4.3731   -0.5051    5.6269 O.3       1 <0>        -0.4919
     24 C21         1.0616   -2.6532    2.3845 C.3       1 <0>        -0.1080
     25 N1          0.0278   -2.7702   -2.4203 N.am      1 <0>        -0.3693
     26 C22         0.5148   -2.1688   -3.5206 C.2       1 <0>         0.6168
     27 O3          0.9462   -1.0300   -3.4477 O.2       1 <0>        -0.5724
     28 N2          0.5297   -2.8101   -4.6927 N.2       1 <0>        -0.6277
     29 C23         0.0576   -4.0476   -4.7576 C.2       1 <0>         0.4338
     30 O4          0.0585   -4.7246   -5.9277 O.3       1 <0>        -0.6512
     31 C24        -0.4456   -4.6448   -3.5812 C.2       1 <0>        -0.0054
     32 N3         -0.4302   -3.9719   -2.4613 N.2       1 <0>        -0.2181
     33 H1         -0.2256    2.0148   -0.0776 H         1 <0>         0.0776
     34 H2         -1.8128    1.4235   -0.6249 H         1 <0>         0.0699
     35 H3         -1.4381    1.4873    1.1140 H         1 <0>         0.0659
     36 H4         -0.8671   -0.3122   -2.0348 H         1 <0>         0.1375
     37 H5          0.9147   -3.6873   -0.1043 H         1 <0>         0.1353
     38 H6         -2.0976   -1.4686    1.8513 H         1 <0>         0.1342
     39 H7         -4.0695   -1.6827    3.3081 H         1 <0>         0.1312
     40 H8         -0.2754    1.1424    4.7017 H         1 <0>         0.1350
     41 H9         -2.7137    0.5026    7.2847 H         1 <0>         0.0859
     42 H10        -1.2548    1.4150    6.8293 H         1 <0>         0.0848
     43 H11        -1.4316    3.6093    5.8030 H         1 <0>         0.1317
     44 H12        -2.7844    5.6509    5.5515 H         1 <0>         0.1340
     45 H13        -6.2801    3.4672    6.6627 H         1 <0>         0.1333
     46 H14        -4.9258    1.4253    6.9033 H         1 <0>         0.1393
     47 H15        -4.3166   -1.2331    6.2608 H         1 <0>         0.3826
     48 H16         2.1264   -2.4383    2.4744 H         1 <0>         0.0752
     49 H17         0.5375   -2.2647    3.2577 H         1 <0>         0.0661
     50 H18         0.9126   -3.7311    2.3211 H         1 <0>         0.0699
     51 H19        -0.8360   -5.6515   -3.6060 H         1 <0>         0.1805
@<TRIPOS>BOND
     1    1    2 1
     2    1   33 1
     3    1   34 1
     4    1   35 1
     5    2    7 ar
     6    2    3 ar
     7    3    4 ar
     8    3   36 1
     9    4    5 ar
    10    4   25 1
    11    5    6 ar
    12    5   37 1
    13    6    7 ar
    14    6   24 1
    15    7    8 1
    16    8    9 1
    17    9   14 ar
    18    9   10 ar
    19   10   11 ar
    20   10   38 1
    21   11   12 ar
    22   11   39 1
    23   12   13 ar
    24   12   23 1
    25   13   14 ar
    26   13   15 1
    27   14   40 1
    28   15   16 1
    29   15   41 1
    30   15   42 1
    31   16   21 ar
    32   16   17 ar
    33   17   18 ar
    34   17   43 1
    35   18   19 ar
    36   18   44 1
    37   19   20 ar
    38   19   22 1
    39   20   21 ar
    40   20   45 1
    41   21   46 1
    42   23   47 1
    43   24   48 1
    44   24   49 1
    45   24   50 1
    46   25   32 1
    47   25   26 am
    48   26   27 2
    49   26   28 1
    50   28   29 2
    51   29   30 1
    52   29   31 1
    53   31   32 2
    54   31   51 1
@<TRIPOS>MOLECULE
CHEMBL39174
   38    39     0     0     0
SMALL
USER_CHARGES

@<TRIPOS>ATOM
      1 C1         -0.0187    1.5258    0.0104 C.3       1 <0>        -0.1428
      2 C2          0.0021   -0.0041    0.0020 C.3       1 <0>        -0.0532
      3 C3          0.7421   -0.5109    1.2415 C.3       1 <0>        -0.1445
      4 C4         -1.4117   -0.5257    0.0127 C.ar      1 <0>        -0.0678
      5 C5         -2.2586   -0.2044    1.0558 C.ar      1 <0>        -0.1253
      6 C6         -3.5600   -0.6842    1.0654 C.ar      1 <0>         0.1282
      7 C7         -4.0111   -1.4867    0.0273 C.ar      1 <0>        -0.1724
      8 C8         -3.1643   -1.8077   -1.0153 C.ar      1 <0>        -0.0980
      9 C9         -1.8644   -1.3235   -1.0275 C.ar      1 <0>         0.0682
     10 O1         -1.0323   -1.6354   -2.0567 O.3       1 <0>        -0.4936
     11 O2         -4.3934   -0.3684    2.0921 O.3       1 <0>        -0.2412
     12 C10        -5.6599   -0.8604    2.0603 C.ar      1 <0>         0.1051
     13 C11        -6.6714   -0.1378    1.4426 C.ar      1 <0>        -0.0875
     14 C12        -7.9586   -0.6407    1.4119 C.ar      1 <0>        -0.0632
     15 C13        -8.2391   -1.8623    1.9955 C.ar      1 <0>         0.0010
     16 C14        -7.2337   -2.5842    2.6119 C.ar      1 <0>        -0.0635
     17 C15        -5.9434   -2.0892    2.6404 C.ar      1 <0>        -0.0873
     18 Br1        -4.5673   -3.0815    3.4756 Br        1 <0>        -0.0347
     19 C16        -9.6434   -2.4078    1.9603 C.3       1 <0>        -0.1625
     20 C17        -9.8271   -3.2424    0.7190 C.2       1 <0>         0.4982
     21 O3         -8.9033   -3.3813   -0.0644 O.co2     1 <0>        -0.6846
     22 O4        -10.8996   -3.7787    0.4982 O.co2     1 <0>        -0.6936
     23 Br2        -6.2889    1.5334    0.6446 Br        1 <0>        -0.0336
     24 H1          1.0039    1.9031    0.0027 H         1 <0>         0.0567
     25 H2         -0.5459    1.8868   -0.8726 H         1 <0>         0.0565
     26 H3         -0.5289    1.8773    0.9072 H         1 <0>         0.0573
     27 H4          0.5123   -0.3556   -0.8948 H         1 <0>         0.0856
     28 H5          0.7568   -1.6008    1.2356 H         1 <0>         0.0544
     29 H6          1.7647   -0.1336    1.2338 H         1 <0>         0.0571
     30 H7          0.2319   -0.1594    2.1383 H         1 <0>         0.0581
     31 H8         -1.9072    0.4200    1.8639 H         1 <0>         0.1332
     32 H9         -5.0243   -1.8606    0.0348 H         1 <0>         0.1335
     33 H10        -3.5154   -2.4324   -1.8233 H         1 <0>         0.1323
     34 H11        -0.5229   -2.4458   -1.9190 H         1 <0>         0.3822
     35 H12        -8.7460   -0.0787    0.9318 H         1 <0>         0.1416
     36 H13        -7.4559   -3.5380    3.0673 H         1 <0>         0.1415
     37 H14        -9.8157   -3.0251    2.8419 H         1 <0>         0.0792
     38 H15       -10.3541   -1.5814    1.9509 H         1 <0>         0.0792
@<TRIPOS>BOND
     1    1    2 1
     2    1   24 1
     3    1   25 1
     4    1   26 1
     5    2    3 1
     6    2    4 1
     7    2   27 1
     8    3   28 1
     9    3   29 1
    10    3   30 1
    11    4    9 ar
    12    4    5 ar
    13    5    6 ar
    14    5   31 1
    15    6    7 ar
    16    6   11 1
    17    7    8 ar
    18    7   32 1
    19    8    9 ar
    20    8   33 1
    21    9   10 1
    22   10   34 1
    23   11   12 1
    24   12   17 ar
    25   12   13 ar
    26   13   14 ar
    27   13   23 1
    28   14   15 ar
    29   14   35 1
    30   15   16 ar
    31   15   19 1
    32   16   17 ar
    33   16   36 1
    34   17   18 1
    35   19   20 1
    36   19   37 1
    37   19   38 1
    38   20   21 2
    39   20   22 1
@<TRIPOS>MOLECULE
CHEMBL122583
   46    50     0     0     0
SMALL
USER_CHARGES

@<TRIPOS>ATOM
      1 C1         -0.0187    1.5258    0.0104 C.3       1 <0>        -0.1429
      2 C2          0.0021   -0.0041    0.0020 C.3       1 <0>        -0.0720
      3 C3          0.7309   -0.5033    1.2229 C.ar      1 <0>         0.1378
      4 C4          0.1063   -1.3987    2.0715 C.ar      1 <0>        -0.1630
      5 C5          0.7808   -1.8561    3.1947 C.ar      1 <0>        -0.0716
      6 C6          2.0652   -1.3957    3.4272 C.ar      1 <0>        -0.1474
      7 C7          2.6339   -0.4935    2.5301 C.ar      1 <0>         0.2030
      8 N1          1.9565   -0.0848    1.4644 N.ar      1 <0>        -0.4513
      9 C8          4.0082    0.0094    2.7650 C.2       1 <0>         0.1422
     10 C9          4.9328    0.5193    1.7528 C.2       1 <0>        -0.1713
     11 C10         6.0804    0.8695    2.4111 C.2       1 <0>         0.0853
     12 N2          5.9111    0.6150    3.7202 N.pl3     1 <0>        -0.3851
     13 N3          4.6244    0.0868    3.9222 N.2       1 <0>        -0.2461
     14 C11         7.1160    0.9811    4.4865 C.3       1 <0>         0.1290
     15 C12         8.2493    1.0996    3.4457 C.3       1 <0>        -0.1315
     16 C13         7.4611    1.4403    2.1611 C.3       1 <0>        -0.0686
     17 C14         4.6773    0.6338    0.3000 C.ar      1 <0>         0.0814
     18 C15         4.1306    1.7902   -0.2437 C.ar      1 <0>        -0.1513
     19 C16         3.9040    1.8649   -1.6115 C.ar      1 <0>         0.1359
     20 N4          4.1912    0.8697   -2.4174 N.ar      1 <0>        -0.4797
     21 C17         4.7190   -0.2728   -1.9653 C.ar      1 <0>         0.1309
     22 C18         4.9876   -0.4305   -0.5844 C.ar      1 <0>        -0.0866
     23 C19         5.5458   -1.6276   -0.1177 C.ar      1 <0>        -0.0880
     24 C20         5.8300   -2.6273   -0.9990 C.ar      1 <0>        -0.1223
     25 C21         5.5725   -2.4740   -2.3592 C.ar      1 <0>        -0.1028
     26 C22         5.0196   -1.3284   -2.8440 C.ar      1 <0>        -0.0955
     27 H1          1.0039    1.9031    0.0027 H         1 <0>         0.0658
     28 H2         -0.5459    1.8868   -0.8726 H         1 <0>         0.0592
     29 H3         -0.5289    1.8773    0.9072 H         1 <0>         0.0512
     30 H4         -1.0205   -0.3814    0.0098 H         1 <0>         0.0794
     31 H5          0.5123   -0.3556   -0.8948 H         1 <0>         0.0816
     32 H6         -0.8972   -1.7387    1.8623 H         1 <0>         0.1376
     33 H7          0.3138   -2.5553    3.8724 H         1 <0>         0.1398
     34 H8          2.6188   -1.7307    4.2919 H         1 <0>         0.1384
     35 H9          6.9663    1.9358    4.9908 H         1 <0>         0.0931
     36 H10         7.3514    0.2033    5.2129 H         1 <0>         0.0962
     37 H11         8.9367    1.9042    3.7070 H         1 <0>         0.1065
     38 H12         8.7807    0.1540    3.3380 H         1 <0>         0.0902
     39 H13         7.9196    0.9645    1.2941 H         1 <0>         0.0979
     40 H14         7.4082    2.5200    2.0214 H         1 <0>         0.1001
     41 H15         3.8832    2.6259    0.3941 H         1 <0>         0.1316
     42 H16         3.4789    2.7679   -2.0241 H         1 <0>         0.1566
     43 H17         5.7501   -1.7574    0.9349 H         1 <0>         0.1205
     44 H18         6.2607   -3.5498   -0.6384 H         1 <0>         0.1237
     45 H19         5.8065   -3.2802   -3.0387 H         1 <0>         0.1280
     46 H20         4.8254   -1.2255   -3.9014 H         1 <0>         0.1341
@<TRIPOS>BOND
     1    1    2 1
     2    1   27 1
     3    1   28 1
     4    1   29 1
     5    2    3 1
     6    2   30 1
     7    2   31 1
     8    3    8 ar
     9    3    4 ar
    10    4    5 ar
    11    4   32 1
    12    5    6 ar
    13    5   33 1
    14    6    7 ar
    15    6   34 1
    16    7    8 ar
    17    7    9 1
    18    9   13 2
    19    9   10 1
    20   10   11 2
    21   10   17 1
    22   11   16 1
    23   11   12 1
    24   12   13 1
    25   12   14 1
    26   14   15 1
    27   14   35 1
    28   14   36 1
    29   15   16 1
    30   15   37 1
    31   15   38 1
    32   16   39 1
    33   16   40 1
    34   17   22 ar
    35   17   18 ar
    36   18   19 ar
    37   18   41 1
    38   19   20 ar
    39   19   42 1
    40   20   21 ar
    41   21   26 ar
    42   21   22 ar
    43   22   23 ar
    44   23   24 ar
    45   23   43 1
    46   24   25 ar
    47   24   44 1
    48   25   26 ar
    49   25   45 1
    50   26   46 1
@<TRIPOS>MOLECULE
CHEMBL56801
   45    47     0     0     0
SMALL
USER_CHARGES

@<TRIPOS>ATOM
      1 C1          0.9917    1.5102   -0.2067 C.3       1 <0>        -0.1189
      2 C2          0.9917    0.0032   -0.2108 C.ar      1 <0>        -0.0261
      3 C3          0.5058   -0.6845   -1.3053 C.ar      1 <0>        -0.1296
      4 C4          0.5053   -2.0718   -1.3091 C.ar      1 <0>         0.1246
      5 C5          0.9933   -2.7698   -0.2135 C.ar      1 <0>        -0.1789
      6 C6          1.4795   -2.0841    0.8816 C.ar      1 <0>        -0.0894
      7 C7          1.4857   -0.6946    0.8841 C.ar      1 <0>        -0.1189
      8 S1          2.1126    0.1817    2.2782 S.3       1 <0>        -0.1091
      9 C8          2.6299   -1.1270    3.4229 C.3       1 <0>        -0.1501
     10 O1          0.0258   -2.7481   -2.3870 O.3       1 <0>        -0.2486
     11 C9          0.0443   -4.1064   -2.3479 C.ar      1 <0>         0.0864
     12 C10         1.1543   -4.7987   -2.8118 C.ar      1 <0>        -0.0705
     13 C11         1.1735   -6.1783   -2.7727 C.ar      1 <0>        -0.0979
     14 C12         0.0819   -6.8739   -2.2686 C.ar      1 <0>         0.1635
     15 C13        -1.0285   -6.1805   -1.8041 C.ar      1 <0>        -0.0914
     16 C14        -1.0444   -4.8007   -1.8388 C.ar      1 <0>        -0.0679
     17 C15        -2.2464   -4.0480   -1.3292 C.3       1 <0>        -0.1144
     18 N1          0.1006   -8.2736   -2.2292 N.am      1 <0>        -0.4000
     19 C16        -0.9484   -8.9652   -2.7087 C.2       1 <0>         0.6817
     20 O2         -1.8999   -8.3656   -3.1709 O.2       1 <0>        -0.5133
     21 N2         -0.9608  -10.3111   -2.6851 N.am      1 <0>        -0.6548
     22 H1         -1.7251  -10.7950   -3.0353 H         1 <0>         0.4381
     23 C17         0.0893  -10.9874   -2.1752 C.2       1 <0>         0.5171
     24 O3          0.0853  -12.2044   -2.1509 O.2       1 <0>        -0.4717
     25 C18         1.2346  -10.2389   -1.6515 C.2       1 <0>         0.0582
     26 N3          1.2136   -8.9349   -1.6963 N.2       1 <0>        -0.1661
     27 C19         2.3384   -4.0439   -3.3586 C.3       1 <0>        -0.1165
     28 H2          1.9287    1.8747   -0.6277 H         1 <0>         0.0799
     29 H3          0.1577    1.8751   -0.8061 H         1 <0>         0.0747
     30 H4          0.8887    1.8707    0.8168 H         1 <0>         0.0761
     31 H5          0.1258   -0.1422   -2.1584 H         1 <0>         0.1388
     32 H6          0.9924   -3.8498   -0.2175 H         1 <0>         0.1294
     33 H7          1.8586   -2.6275    1.7345 H         1 <0>         0.1266
     34 H8          1.7701   -1.7459    3.6795 H         1 <0>         0.0824
     35 H9          3.3930   -1.7440    2.9485 H         1 <0>         0.0829
     36 H10         3.0372   -0.6775    4.3285 H         1 <0>         0.1095
     37 H11         2.0370   -6.7169   -3.1344 H         1 <0>         0.1401
     38 H12        -1.8776   -6.7207   -1.4123 H         1 <0>         0.1378
     39 H13        -2.9543   -3.8990   -2.1446 H         1 <0>         0.0821
     40 H14        -2.7235   -4.6209   -0.5340 H         1 <0>         0.0722
     41 H15        -1.9309   -3.0799   -0.9404 H         1 <0>         0.0724
     42 H16         2.0862  -10.7590   -1.2383 H         1 <0>         0.2308
     43 H17         3.0373   -3.8292   -2.5502 H         1 <0>         0.0767
     44 H18         2.8354   -4.6481   -4.1177 H         1 <0>         0.0746
     45 H19         1.9991   -3.1085   -3.8036 H         1 <0>         0.0777
@<TRIPOS>BOND
     1    1    2 1
     2    1   28 1
     3    1   29 1
     4    1   30 1
     5    2    7 ar
     6    2    3 ar
     7    3    4 ar
     8    3   31 1
     9    4    5 ar
    10    4   10 1
    11    5    6 ar
    12    5   32 1
    13    6    7 ar
    14    6   33 1
    15    7    8 1
    16    8    9 1
    17    9   34 1
    18    9   35 1
    19    9   36 1
    20   10   11 1
    21   11   16 ar
    22   11   12 ar
    23   12   13 ar
    24   12   27 1
    25   13   14 ar
    26   13   37 1
    27   14   15 ar
    28   14   18 1
    29   15   16 ar
    30   15   38 1
    31   16   17 1
    32   17   39 1
    33   17   40 1
    34   17   41 1
    35   18   26 1
    36   18   19 am
    37   19   20 2
    38   19   21 am
    39   21   22 1
    40   21   23 am
    41   23   24 2
    42   23   25 1
    43   25   26 2
    44   25   42 1
    45   27   43 1
    46   27   44 1
    47   27   45 1
@<TRIPOS>MOLECULE
CHEMBL56801__1
   44    46     0     0     0
SMALL
USER_CHARGES

@<TRIPOS>ATOM
      1 C1          0.9965    1.5105   -0.2088 C.3       1 <0>        -0.1156
      2 C2          0.9963    0.0035   -0.2126 C.ar      1 <0>        -0.0292
      3 C3          0.5085   -0.6844   -1.3062 C.ar      1 <0>        -0.1355
      4 C4          0.5082   -2.0716   -1.3099 C.ar      1 <0>         0.1322
      5 C5          0.9980   -2.7695   -0.2151 C.ar      1 <0>        -0.1778
      6 C6          1.4861   -2.0837    0.8792 C.ar      1 <0>        -0.0879
      7 C7          1.4921   -0.6941    0.8815 C.ar      1 <0>        -0.1241
      8 S1          2.1214    0.1824    2.2745 S.3       1 <0>        -0.1186
      9 C8          2.6404   -1.1262    3.4186 C.3       1 <0>        -0.1483
     10 O1          0.0273   -2.7480   -2.3870 O.3       1 <0>        -0.2466
     11 C9          0.0461   -4.1063   -2.3479 C.ar      1 <0>         0.0624
     12 C10         1.1556   -4.7984   -2.8135 C.ar      1 <0>        -0.0760
     13 C11         1.1754   -6.1778   -2.7740 C.ar      1 <0>        -0.1088
     14 C12         0.0846   -6.8737   -2.2682 C.ar      1 <0>         0.1787
     15 C13        -1.0256   -6.1804   -1.8024 C.ar      1 <0>        -0.0899
     16 C14        -1.0418   -4.8007   -1.8372 C.ar      1 <0>        -0.0726
     17 C15        -2.2434   -4.0483   -1.3263 C.3       1 <0>        -0.1089
     18 N1          0.1038   -8.2727   -2.2283 N.am      1 <0>        -0.3690
     19 C16        -0.9476   -8.9600   -2.7095 C.2       1 <0>         0.6167
     20 O2         -1.9029   -8.3593   -3.1733 O.2       1 <0>        -0.5724
     21 N2         -0.9530  -10.2958   -2.6836 N.2       1 <0>        -0.6277
     22 C17         0.0919  -10.9359   -2.1768 C.2       1 <0>         0.4338
     23 O3          0.1186  -12.2868   -2.1359 O.3       1 <0>        -0.6513
     24 C18         1.1763  -10.1795   -1.6810 C.2       1 <0>        -0.0058
     25 N3          1.1291   -8.8750   -1.7369 N.2       1 <0>        -0.2182
     26 C19         2.3386   -4.0433   -3.3626 C.3       1 <0>        -0.1106
     27 H1          1.9329    1.8748   -0.6315 H         1 <0>         0.0771
     28 H2          0.1615    1.8755   -0.8069 H         1 <0>         0.0726
     29 H3          0.8953    1.8712    0.8148 H         1 <0>         0.0739
     30 H4          0.1268   -0.1422   -2.1586 H         1 <0>         0.1366
     31 H5          0.9970   -3.8495   -0.2188 H         1 <0>         0.1330
     32 H6          1.8665   -2.6270    1.7315 H         1 <0>         0.1252
     33 H7          3.0493   -0.6766    4.3234 H         1 <0>         0.1070
     34 H8          1.7810   -1.7450    3.6767 H         1 <0>         0.0825
     35 H9          3.4027   -1.7433    2.9430 H         1 <0>         0.0828
     36 H10         2.0386   -6.7162   -3.1366 H         1 <0>         0.1351
     37 H11        -1.8741   -6.7208   -1.4093 H         1 <0>         0.1374
     38 H12        -2.9524   -3.8997   -2.1408 H         1 <0>         0.0777
     39 H13        -2.7193   -4.6211   -0.5303 H         1 <0>         0.0696
     40 H14        -1.9277   -3.0799   -0.9382 H         1 <0>         0.0660
     41 H15         2.0396  -10.6755   -1.2625 H         1 <0>         0.1804
     42 H16         3.0388   -3.8281   -2.5554 H         1 <0>         0.0706
     43 H17         2.8345   -4.6476   -4.1222 H         1 <0>         0.0710
     44 H18         1.9982   -3.1082   -3.8073 H         1 <0>         0.0723
@<TRIPOS>BOND
     1    1    2 1
     2    1   27 1
     3    1   28 1
     4    1   29 1
     5    2    7 ar
     6    2    3 ar
     7    3    4 ar
     8    3   30 1
     9    4    5 ar
    10    4   10 1
    11    5    6 ar
    12    5   31 1
    13    6    7 ar
    14    6   32 1
    15    7    8 1
    16    8    9 1
    17    9   33 1
    18    9   34 1
    19    9   35 1
    20   10   11 1
    21   11   16 ar
    22   11   12 ar
    23   12   13 ar
    24   12   26 1
    25   13   14 ar
    26   13   36 1
    27   14   15 ar
    28   14   18 1
    29   15   16 ar
    30   15   37 1
    31   16   17 1
    32   17   38 1
    33   17   39 1
    34   17   40 1
    35   18   25 1
    36   18   19 am
    37   19   20 2
    38   19   21 1
    39   21   22 2
    40   22   23 1
    41   22   24 1
    42   24   25 2
    43   24   41 1
    44   26   42 1
    45   26   43 1
    46   26   44 1
@<TRIPOS>MOLECULE
CHEMBL109279
   61    63     0     0     0
SMALL
USER_CHARGES

@<TRIPOS>ATOM
      1 C1          0.1624   -2.8699    2.2376 C.3       1 <0>        -0.1177
      2 C2          0.0579   -2.0052    1.0077 C.ar      1 <0>        -0.0381
      3 C3          0.1294   -2.5785   -0.2471 C.ar      1 <0>        -0.1642
      4 C4          0.0332   -1.7819   -1.3788 C.ar      1 <0>         0.1489
      5 C5         -0.1347   -0.4111   -1.2472 C.ar      1 <0>        -0.2201
      6 C6         -0.2057    0.1573    0.0099 C.ar      1 <0>        -0.0360
      7 C7         -0.1151   -0.6395    1.1363 C.ar      1 <0>        -0.1389
      8 C8         -0.1995   -0.0176    2.5064 C.3       1 <0>        -0.0372
      9 C9         -1.6369    0.0094    2.9582 C.ar      1 <0>        -0.0681
     10 C10        -2.4270    1.1026    2.6698 C.ar      1 <0>        -0.0763
     11 C11        -3.7594    1.1283    3.0882 C.ar      1 <0>        -0.0263
     12 C12        -4.2835    0.0394    3.7998 C.ar      1 <0>         0.1292
     13 C13        -3.4760   -1.0498    4.0806 C.ar      1 <0>        -0.0961
     14 C14        -2.1602   -1.0654    3.6559 C.ar      1 <0>        -0.0803
     15 C15        -4.0338   -2.2227    4.8449 C.3       1 <0>        -0.0553
     16 C16        -3.9309   -3.4857    3.9874 C.3       1 <0>        -0.1471
     17 C17        -3.2356   -2.4164    6.1358 C.3       1 <0>        -0.1427
     18 O1         -5.5775    0.0533    4.2121 O.3       1 <0>        -0.4899
     19 C18        -4.5853    2.2601    2.7927 C.1       1 <0>        -0.0468
     20 C19        -5.2625    3.1881    2.5504 C.1       1 <0>        -0.1573
     21 C20        -6.0884    4.3200    2.2549 C.ar      1 <0>         0.0869
     22 C21        -5.5670    5.4024    1.5412 C.ar      1 <0>        -0.0993
     23 C22        -6.3686    6.4888    1.2599 C.ar      1 <0>        -0.0503
     24 C23        -7.6861    6.5088    1.6825 C.ar      1 <0>        -0.0497
     25 C24        -8.2094    5.4406    2.3897 C.ar      1 <0>        -0.0495
     26 C25        -7.4213    4.3450    2.6739 C.ar      1 <0>        -0.0983
     27 N1         -8.5400    7.6789    1.3770 N.pl3     1 <0>         0.0335
     28 O2         -8.0858    8.6139    0.7597 O.2       1 <0>        -0.1581
     29 O3         -9.6915    7.6995    1.7448 O.3       1 <0>        -0.1570
     30 C26        -0.3880    1.6463    0.1537 C.3       1 <0>        -0.1195
     31 O4          0.1037   -2.3435   -2.6144 O.3       1 <0>        -0.2807
     32 C27        -0.0030   -1.4624   -3.7344 C.3       1 <0>        -0.0060
     33 C28         0.0963   -2.2579   -5.0105 C.2       1 <0>         0.5009
     34 O5          0.2446   -3.4673   -4.9650 O.co2     1 <0>        -0.6708
     35 O6          0.0283   -1.6922   -6.0884 O.co2     1 <0>        -0.6872
     36 H1         -0.8369   -3.1504    2.5705 H         1 <0>         0.0704
     37 H2          0.7326   -3.7686    2.0024 H         1 <0>         0.0679
     38 H3          0.6671   -2.3162    3.0292 H         1 <0>         0.0691
     39 H4          0.2605   -3.6459   -0.3470 H         1 <0>         0.1286
     40 H5         -0.2096    0.2112   -2.1267 H         1 <0>         0.1267
     41 H6          0.3913   -0.6052    3.2091 H         1 <0>         0.0845
     42 H7          0.1884    1.0003    2.4679 H         1 <0>         0.0827
     43 H8         -2.0160    1.9375    2.1216 H         1 <0>         0.1335
     44 H9         -1.5359   -1.9193    3.8737 H         1 <0>         0.1344
     45 H10        -5.0791   -2.0334    5.0890 H         1 <0>         0.0851
     46 H11        -2.8856   -3.6750    3.7433 H         1 <0>         0.0590
     47 H12        -4.3344   -4.3341    4.5402 H         1 <0>         0.0602
     48 H13        -4.4995   -3.3477    3.0678 H         1 <0>         0.0561
     49 H14        -2.1903   -2.6057    5.8917 H         1 <0>         0.0573
     50 H15        -3.3089   -1.5166    6.7467 H         1 <0>         0.0558
     51 H16        -3.6391   -3.2647    6.6886 H         1 <0>         0.0593
     52 H17        -6.1983   -0.3205    3.5720 H         1 <0>         0.3903
     53 H18        -4.5388    5.3883    1.2110 H         1 <0>         0.1521
     54 H19        -5.9670    7.3263    0.7087 H         1 <0>         0.1589
     55 H20        -9.2385    5.4632    2.7164 H         1 <0>         0.1594
     56 H21        -7.8323    3.5101    3.2220 H         1 <0>         0.1525
     57 H22        -1.4467    1.8720    0.2814 H         1 <0>         0.0689
     58 H23         0.1660    1.9978    1.0241 H         1 <0>         0.0693
     59 H24        -0.0153    2.1460   -0.7404 H         1 <0>         0.0662
     60 H25        -0.9629   -0.9471   -3.7013 H         1 <0>         0.0582
     61 H26         0.8038   -0.7304   -3.6990 H         1 <0>         0.0589
@<TRIPOS>BOND
     1    1    2 1
     2    1   36 1
     3    1   37 1
     4    1   38 1
     5    2    7 ar
     6    2    3 ar
     7    3    4 ar
     8    3   39 1
     9    4    5 ar
    10    4   31 1
    11    5    6 ar
    12    5   40 1
    13    6    7 ar
    14    6   30 1
    15    7    8 1
    16    8    9 1
    17    8   41 1
    18    8   42 1
    19    9   14 ar
    20    9   10 ar
    21   10   11 ar
    22   10   43 1
    23   11   12 ar
    24   11   19 1
    25   12   13 ar
    26   12   18 1
    27   13   14 ar
    28   13   15 1
    29   14   44 1
    30   15   16 1
    31   15   17 1
    32   15   45 1
    33   16   46 1
    34   16   47 1
    35   16   48 1
    36   17   49 1
    37   17   50 1
    38   17   51 1
    39   18   52 1
    40   19   20 3
    41   20   21 1
    42   21   26 ar
    43   21   22 ar
    44   22   23 ar
    45   22   53 1
    46   23   24 ar
    47   23   54 1
    48   24   25 ar
    49   24   27 1
    50   25   26 ar
    51   25   55 1
    52   26   56 1
    53   27   28 2
    54   27   29 1
    55   30   57 1
    56   30   58 1
    57   30   59 1
    58   31   32 1
    59   32   33 1
    60   32   60 1
    61   32   61 1
    62   33   34 2
    63   33   35 1
@<TRIPOS>MOLECULE
CHEMBL121790
   38    41     0     0     0
SMALL
USER_CHARGES

@<TRIPOS>ATOM
      1 C1         -0.0184    1.5028    0.0103 C.3       1 <0>        -0.1043
      2 C2          0.0021   -0.0041    0.0020 C.ar      1 <0>         0.1342
      3 C3          0.0056   -0.6794   -1.2046 C.ar      1 <0>        -0.1660
      4 C4          0.0249   -2.0670   -1.2080 C.ar      1 <0>        -0.0712
      5 C5          0.0401   -2.7306    0.0065 C.ar      1 <0>        -0.1484
      6 C6          0.0355   -1.9865    1.1848 C.ar      1 <0>         0.2049
      7 N1          0.0218   -0.6599    1.1445 N.ar      1 <0>        -0.4578
      8 C7          0.0515   -2.6820    2.4936 C.2       1 <0>         0.1337
      9 C8          0.5288   -2.1486    3.7163 C.2       1 <0>        -0.1581
     10 C9          0.3655   -3.1077    4.6732 C.2       1 <0>         0.0769
     11 N2         -0.1889   -4.1882    4.0900 N.pl3     1 <0>        -0.3814
     12 N3         -0.3796   -3.9009    2.7276 N.2       1 <0>        -0.2521
     13 C10        -0.4017   -5.2650    5.0712 C.3       1 <0>         0.1289
     14 C11         0.4864   -4.9047    6.2813 C.3       1 <0>        -0.1320
     15 C12         0.5924   -3.3688    6.1477 C.3       1 <0>        -0.0673
     16 C13         1.1018   -0.7950    3.9191 C.ar      1 <0>        -0.0092
     17 C14         2.4390   -0.6496    4.2833 C.ar      1 <0>        -0.0812
     18 C15         2.9678    0.6111    4.4704 C.ar      1 <0>        -0.1599
     19 C16         2.1715    1.7313    4.2967 C.ar      1 <0>         0.0955
     20 C17         0.8416    1.5914    3.9347 C.ar      1 <0>        -0.1579
     21 C18         0.3059    0.3347    3.7403 C.ar      1 <0>        -0.0338
     22 F1          2.6932    2.9638    4.4814 F         1 <0>        -0.1434
     23 H1          1.0042    1.8801    0.0026 H         1 <0>         0.0794
     24 H2         -0.5455    1.8639   -0.8728 H         1 <0>         0.0761
     25 H3         -0.5286    1.8543    0.9071 H         1 <0>         0.0781
     26 H4         -0.0069   -0.1322   -2.1356 H         1 <0>         0.1373
     27 H5          0.0277   -2.6167   -2.1375 H         1 <0>         0.1390
     28 H6          0.0549   -3.8100    0.0406 H         1 <0>         0.1383
     29 H7         -1.4493   -5.3010    5.3700 H         1 <0>         0.0931
     30 H8         -0.0957   -6.2233    4.6513 H         1 <0>         0.0959
     31 H9          0.0017   -5.1824    7.2173 H         1 <0>         0.1058
     32 H10         1.4675   -5.3722    6.1981 H         1 <0>         0.0899
     33 H11         1.5830   -3.0271    6.4476 H         1 <0>         0.0983
     34 H12        -0.1777   -2.8799    6.7445 H         1 <0>         0.0991
     35 H13         3.0604   -1.5224    4.4193 H         1 <0>         0.1255
     36 H14         4.0040    0.7247    4.7531 H         1 <0>         0.1319
     37 H15         0.2243    2.4674    3.8003 H         1 <0>         0.1323
     38 H16        -0.7298    0.2267    3.4537 H         1 <0>         0.1299
@<TRIPOS>BOND
     1    1    2 1
     2    1   23 1
     3    1   24 1
     4    1   25 1
     5    2    7 ar
     6    2    3 ar
     7    3    4 ar
     8    3   26 1
     9    4    5 ar
    10    4   27 1
    11    5    6 ar
    12    5   28 1
    13    6    7 ar
    14    6    8 1
    15    8   12 2
    16    8    9 1
    17    9   10 2
    18    9   16 1
    19   10   15 1
    20   10   11 1
    21   11   12 1
    22   11   13 1
    23   13   14 1
    24   13   29 1
    25   13   30 1
    26   14   15 1
    27   14   31 1
    28   14   32 1
    29   15   33 1
    30   15   34 1
    31   16   21 ar
    32   16   17 ar
    33   17   18 ar
    34   17   35 1
    35   18   19 ar
    36   18   36 1
    37   19   20 ar
    38   19   22 1
    39   20   21 ar
    40   20   37 1
    41   21   38 1
@<TRIPOS>MOLECULE
CHEMBL121554
   40    44     0     0     0
SMALL
USER_CHARGES

@<TRIPOS>ATOM
      1 C1         -0.0167    1.3795    0.0096 C.ar      1 <0>        -0.0745
      2 C2          1.1938    2.0587    0.0017 C.ar      1 <0>        -0.1629
      3 C3          2.3746    1.3401   -0.0134 C.ar      1 <0>         0.1052
      4 N1          2.3647    0.0224   -0.0208 N.ar      1 <0>        -0.4570
      5 C4          1.2295   -0.6646   -0.0137 C.ar      1 <0>         0.1969
      6 C5          0.0021   -0.0041    0.0020 C.ar      1 <0>        -0.1402
      7 C6          1.2669   -2.1463   -0.0225 C.2       1 <0>         0.1422
      8 C7          2.3519   -2.9861   -0.5295 C.2       1 <0>        -0.1760
      9 C8          1.9635   -4.2846   -0.3405 C.2       1 <0>         0.0881
     10 N2          0.7493   -4.2830    0.2363 N.pl3     1 <0>        -0.3841
     11 N3          0.3346   -2.9538    0.4286 N.2       1 <0>        -0.2450
     12 C9          0.2788   -5.6596    0.4740 C.3       1 <0>         0.1284
     13 C10         1.1568   -6.5585   -0.4221 C.3       1 <0>        -0.1316
     14 C11         2.4384   -5.7062   -0.5612 C.3       1 <0>        -0.0693
     15 C12         3.6221   -2.5220   -1.1298 C.ar      1 <0>         0.0842
     16 C13         4.7472   -2.2977   -0.3451 C.ar      1 <0>        -0.1472
     17 C14         5.9235   -1.8623   -0.9402 C.ar      1 <0>         0.1426
     18 N4          6.0104   -1.6529   -2.2329 N.ar      1 <0>        -0.4775
     19 C15         4.9693   -1.8475   -3.0495 C.ar      1 <0>         0.1413
     20 C16         3.7332   -2.2969   -2.5255 C.ar      1 <0>        -0.0884
     21 C17         2.6475   -2.5045   -3.3864 C.ar      1 <0>        -0.0704
     22 C18         2.7930   -2.2770   -4.7218 C.ar      1 <0>        -0.1178
     23 C19         4.0098   -1.8397   -5.2430 C.ar      1 <0>        -0.0159
     24 C20         5.0816   -1.6178   -4.4317 C.ar      1 <0>        -0.0850
     25 Cl1         4.1577   -1.5609   -6.9501 Cl        1 <0>        -0.0630
     26 H1         -0.9522    1.9188    0.0259 H         1 <0>         0.1400
     27 H2          1.2130    3.1385    0.0070 H         1 <0>         0.1393
     28 H3          3.3180    1.8657   -0.0196 H         1 <0>         0.1605
     29 H4         -0.9212   -0.5643    0.0082 H         1 <0>         0.1393
     30 H5          0.4118   -5.9276    1.5221 H         1 <0>         0.0938
     31 H6         -0.7695   -5.7539    0.1903 H         1 <0>         0.0969
     32 H7          1.3711   -7.5081    0.0683 H         1 <0>         0.1069
     33 H8          0.6875   -6.7194   -1.3927 H         1 <0>         0.0908
     34 H9          2.8630   -5.8161   -1.5590 H         1 <0>         0.0985
     35 H10         3.1681   -5.9870    0.1982 H         1 <0>         0.1010
     36 H11         4.7065   -2.4610    0.7217 H         1 <0>         0.1358
     37 H12         6.7919   -1.6907   -0.3216 H         1 <0>         0.1613
     38 H13         1.7003   -2.8434   -2.9935 H         1 <0>         0.1313
     39 H14         1.9556   -2.4376   -5.3846 H         1 <0>         0.1356
     40 H15         6.0175   -1.2787   -4.8506 H         1 <0>         0.1460
@<TRIPOS>BOND
     1    1    6 ar
     2    1    2 ar
     3    1   26 1
     4    2    3 ar
     5    2   27 1
     6    3    4 ar
     7    3   28 1
     8    4    5 ar
     9    5    6 ar
    10    5    7 1
    11    6   29 1
    12    7   11 2
    13    7    8 1
    14    8    9 2
    15    8   15 1
    16    9   14 1
    17    9   10 1
    18   10   11 1
    19   10   12 1
    20   12   13 1
    21   12   30 1
    22   12   31 1
    23   13   14 1
    24   13   32 1
    25   13   33 1
    26   14   34 1
    27   14   35 1
    28   15   20 ar
    29   15   16 ar
    30   16   17 ar
    31   16   36 1
    32   17   18 ar
    33   17   37 1
    34   18   19 ar
    35   19   24 ar
    36   19   20 ar
    37   20   21 ar
    38   21   22 ar
    39   21   38 1
    40   22   23 ar
    41   22   39 1
    42   23   24 ar
    43   23   25 1
    44   24   40 1
@<TRIPOS>MOLECULE
CHEMBL332344
   43    47     0     0     0
SMALL
USER_CHARGES

@<TRIPOS>ATOM
      1 C1         -0.0184    1.5028    0.0103 C.3       1 <0>        -0.1041
      2 C2          0.0021   -0.0041    0.0020 C.ar      1 <0>         0.1350
      3 C3          0.0056   -0.6795   -1.2046 C.ar      1 <0>        -0.1635
      4 C4          0.0249   -2.0670   -1.2080 C.ar      1 <0>        -0.0708
      5 C5          0.0401   -2.7306    0.0065 C.ar      1 <0>        -0.1473
      6 C6          0.0355   -1.9864    1.1848 C.ar      1 <0>         0.2022
      7 N1          0.0218   -0.6599    1.1444 N.ar      1 <0>        -0.4571
      8 C7          0.0515   -2.6820    2.4936 C.2       1 <0>         0.1431
      9 C8          0.5418   -2.1401    3.7606 C.2       1 <0>        -0.1761
     10 C9          0.3670   -3.1200    4.6998 C.2       1 <0>         0.0878
     11 N2         -0.1863   -4.1876    4.0988 N.pl3     1 <0>        -0.3843
     12 N3         -0.3770   -3.8994    2.7364 N.2       1 <0>        -0.2448
     13 C10        -0.4078   -5.2784    5.0654 C.3       1 <0>         0.1285
     14 C11         0.4758   -4.9382    6.2841 C.3       1 <0>        -0.1316
     15 C12         0.5863   -3.4010    6.1721 C.3       1 <0>        -0.0693
     16 C13         1.1156   -0.7946    3.9835 C.ar      1 <0>         0.0853
     17 C14         0.3085    0.2804    4.3369 C.ar      1 <0>        -0.1475
     18 C15         0.8790    1.5299    4.5386 C.ar      1 <0>         0.1423
     19 N4          2.1687    1.7331    4.4051 N.ar      1 <0>        -0.4771
     20 C16         3.0059    0.7464    4.0673 C.ar      1 <0>         0.1416
     21 C17         2.5077   -0.5608    3.8493 C.ar      1 <0>        -0.0881
     22 C18         3.3902   -1.5919    3.5011 C.ar      1 <0>        -0.0703
     23 C19         4.7214   -1.3281    3.3812 C.ar      1 <0>        -0.1180
     24 C20         5.2173   -0.0438    3.6008 C.ar      1 <0>        -0.0159
     25 C21         4.3845    0.9834    3.9291 C.ar      1 <0>        -0.0852
     26 Cl1         6.9198    0.2543    3.4394 Cl        1 <0>        -0.0630
     27 H1          1.0042    1.8801    0.0026 H         1 <0>         0.0788
     28 H2         -0.5455    1.8639   -0.8728 H         1 <0>         0.0772
     29 H3         -0.5286    1.8543    0.9071 H         1 <0>         0.0781
     30 H4         -0.0069   -0.1322   -2.1356 H         1 <0>         0.1384
     31 H5          0.0277   -2.6167   -2.1376 H         1 <0>         0.1403
     32 H6          0.0549   -3.8100    0.0406 H         1 <0>         0.1390
     33 H7         -1.4569   -5.3145    5.3589 H         1 <0>         0.0937
     34 H8         -0.1036   -6.2319    4.6337 H         1 <0>         0.0968
     35 H9         -0.0137   -5.2277    7.2140 H         1 <0>         0.1069
     36 H10         1.4560   -5.4071    6.1985 H         1 <0>         0.0907
     37 H11         1.5764   -3.0659    6.4812 H         1 <0>         0.0984
     38 H12        -0.1854   -2.9185    6.7719 H         1 <0>         0.1009
     39 H13        -0.7566    0.1445    4.4535 H         1 <0>         0.1354
     40 H14         0.2431    2.3586    4.8129 H         1 <0>         0.1609
     41 H15         3.0171   -2.5907    3.3289 H         1 <0>         0.1312
     42 H16         5.4008   -2.1236    3.1131 H         1 <0>         0.1355
     43 H17         4.7838    1.9730    4.0954 H         1 <0>         0.1459
@<TRIPOS>BOND
     1    1    2 1
     2    1   27 1
     3    1   28 1
     4    1   29 1
     5    2    7 ar
     6    2    3 ar
     7    3    4 ar
     8    3   30 1
     9    4    5 ar
    10    4   31 1
    11    5    6 ar
    12    5   32 1
    13    6    7 ar
    14    6    8 1
    15    8   12 2
    16    8    9 1
    17    9   10 2
    18    9   16 1
    19   10   15 1
    20   10   11 1
    21   11   12 1
    22   11   13 1
    23   13   14 1
    24   13   33 1
    25   13   34 1
    26   14   15 1
    27   14   35 1
    28   14   36 1
    29   15   37 1
    30   15   38 1
    31   16   21 ar
    32   16   17 ar
    33   17   18 ar
    34   17   39 1
    35   18   19 ar
    36   18   40 1
    37   19   20 ar
    38   20   25 ar
    39   20   21 ar
    40   21   22 ar
    41   22   23 ar
    42   22   41 1
    43   23   24 ar
    44   23   42 1
    45   24   25 ar
    46   24   26 1
    47   25   43 1
@<TRIPOS>MOLECULE
CHEMBL550497
   52    53     0     0     0
SMALL
USER_CHARGES

@<TRIPOS>ATOM
      1 C1         -0.0187    1.5258    0.0104 C.3       1 <0>        -0.1551
      2 C2          0.0021   -0.0041    0.0020 C.3       1 <0>        -0.1256
      3 C3          0.7182   -0.4975   -1.2568 C.3       1 <0>        -0.1203
      4 C4          0.7390   -2.0273   -1.2652 C.3       1 <0>        -0.1168
      5 C5          1.4551   -2.5207   -2.5240 C.3       1 <0>        -0.1202
      6 C6          1.4758   -4.0506   -2.5324 C.3       1 <0>         0.0537
      7 O1          2.1447   -4.5114   -3.7081 O.3       1 <0>        -0.2931
      8 C7          2.2504   -5.8544   -3.8703 C.ar      1 <0>         0.1891
      9 C8          1.7135   -6.7119   -2.9158 C.ar      1 <0>        -0.2104
     10 C9          1.8150   -8.0650   -3.0704 C.ar      1 <0>        -0.0136
     11 C10         2.4612   -8.5958   -4.1940 C.ar      1 <0>        -0.1963
     12 C11         3.0026   -7.7333   -5.1574 C.ar      1 <0>         0.0555
     13 C12         2.8900   -6.3685   -4.9933 C.ar      1 <0>        -0.0888
     14 Cl1         3.5521   -5.2929   -6.1843 Cl        1 <0>        -0.0259
     15 Cl2         3.8062   -8.3803   -6.5536 Cl        1 <0>        -0.0015
     16 C13         2.5717  -10.0497   -4.3617 C.2       1 <0>         0.3953
     17 O2          3.1319  -10.5071   -5.3356 O.2       1 <0>        -0.4297
     18 C14         1.9892  -10.9744   -3.3240 C.3       1 <0>        -0.1600
     19 C15         2.2393  -12.4263   -3.7367 C.3       1 <0>         0.0641
     20 N1          1.6715  -13.3276   -2.7252 N.3       1 <0>        -0.5380
     21 C16         2.3894  -13.2053   -1.4481 C.3       1 <0>         0.0116
     22 C17         1.7293  -14.1150   -0.4086 C.3       1 <0>         0.0630
     23 O3          1.7185  -15.4592   -0.8971 O.3       1 <0>        -0.3852
     24 C18         1.0270  -15.6148   -2.1393 C.3       1 <0>         0.0632
     25 C19         1.6800  -14.7202   -3.1963 C.3       1 <0>         0.0174
     26 H1          1.0039    1.9031    0.0027 H         1 <0>         0.0541
     27 H2         -0.5459    1.8868   -0.8726 H         1 <0>         0.0541
     28 H3         -0.5289    1.8773    0.9072 H         1 <0>         0.0545
     29 H4          0.5293   -0.3651    0.8851 H         1 <0>         0.0613
     30 H5         -1.0205   -0.3814    0.0098 H         1 <0>         0.0614
     31 H6          0.1910   -0.1364   -2.1398 H         1 <0>         0.0643
     32 H7          1.7408   -0.1202   -1.2645 H         1 <0>         0.0642
     33 H8          1.2661   -2.3884   -0.3821 H         1 <0>         0.0662
     34 H9         -0.2836   -2.4046   -1.2575 H         1 <0>         0.0663
     35 H10         0.9279   -2.1597   -3.4071 H         1 <0>         0.0771
     36 H11         2.4777   -2.1435   -2.5317 H         1 <0>         0.0770
     37 H12         2.0030   -4.4117   -1.6494 H         1 <0>         0.0700
     38 H13         0.4533   -4.4279   -2.5247 H         1 <0>         0.0702
     39 H14         1.2146   -6.3059   -2.0483 H         1 <0>         0.1500
     40 H15         1.3969   -8.7261   -2.3257 H         1 <0>         0.1506
     41 H16         2.4625  -10.7837   -2.3608 H         1 <0>         0.0996
     42 H17         0.9164  -10.7994   -3.2427 H         1 <0>         0.1101
     43 H18         1.7661  -12.6169   -4.6999 H         1 <0>         0.0852
     44 H19         3.3121  -12.6012   -3.8181 H         1 <0>         0.0451
     45 H20         3.4289  -13.5034   -1.5849 H         1 <0>         0.0451
     46 H21         2.3486  -12.1714   -1.1052 H         1 <0>         0.0876
     47 H22         2.2924  -14.0711    0.5236 H         1 <0>         0.0986
     48 H23         0.7059  -13.7836   -0.2324 H         1 <0>         0.0605
     49 H24         1.0822  -16.6554   -2.4587 H         1 <0>         0.0996
     50 H25        -0.0168  -15.3269   -2.0133 H         1 <0>         0.0609
     51 H26         1.1214  -14.7922   -4.1295 H         1 <0>         0.0886
     52 H27         2.7081  -15.0425   -3.3610 H         1 <0>         0.0454
@<TRIPOS>BOND
     1    1    2 1
     2    1   26 1
     3    1   27 1
     4    1   28 1
     5    2    3 1
     6    2   29 1
     7    2   30 1
     8    3    4 1
     9    3   31 1
    10    3   32 1
    11    4    5 1
    12    4   33 1
    13    4   34 1
    14    5    6 1
    15    5   35 1
    16    5   36 1
    17    6    7 1
    18    6   37 1
    19    6   38 1
    20    7    8 1
    21    8   13 ar
    22    8    9 ar
    23    9   10 ar
    24    9   39 1
    25   10   11 ar
    26   10   40 1
    27   11   12 ar
    28   11   16 1
    29   12   13 ar
    30   12   15 1
    31   13   14 1
    32   16   17 2
    33   16   18 1
    34   18   19 1
    35   18   41 1
    36   18   42 1
    37   19   20 1
    38   19   43 1
    39   19   44 1
    40   20   25 1
    41   20   21 1
    42   21   22 1
    43   21   45 1
    44   21   46 1
    45   22   23 1
    46   22   47 1
    47   22   48 1
    48   23   24 1
    49   24   25 1
    50   24   49 1
    51   24   50 1
    52   25   51 1
    53   25   52 1
@<TRIPOS>MOLECULE
CHEMBL550497__1
   53    54     0     0     0
SMALL
USER_CHARGES

@<TRIPOS>ATOM
      1 C1         -0.0187    1.5258    0.0104 C.3       1 <0>        -0.1561
      2 C2          0.0021   -0.0041    0.0020 C.3       1 <0>        -0.1250
      3 C3          0.7182   -0.4975   -1.2568 C.3       1 <0>        -0.1212
      4 C4          0.7390   -2.0273   -1.2652 C.3       1 <0>        -0.1160
      5 C5          1.4551   -2.5207   -2.5240 C.3       1 <0>        -0.1220
      6 C6          1.4758   -4.0506   -2.5324 C.3       1 <0>         0.0532
      7 O1          2.1447   -4.5114   -3.7081 O.3       1 <0>        -0.2877
      8 C7          2.2504   -5.8544   -3.8703 C.ar      1 <0>         0.2037
      9 C8          1.7135   -6.7119   -2.9158 C.ar      1 <0>        -0.2107
     10 C9          1.8150   -8.0650   -3.0704 C.ar      1 <0>        -0.0155
     11 C10         2.4612   -8.5958   -4.1940 C.ar      1 <0>        -0.2130
     12 C11         3.0026   -7.7333   -5.1574 C.ar      1 <0>         0.0619
     13 C12         2.8900   -6.3685   -4.9933 C.ar      1 <0>        -0.0906
     14 Cl1         3.5521   -5.2929   -6.1843 Cl        1 <0>        -0.0126
     15 Cl2         3.8062   -8.3803   -6.5536 Cl        1 <0>         0.0053
     16 C13         2.5717  -10.0497   -4.3617 C.2       1 <0>         0.4070
     17 O2          3.1319  -10.5071   -5.3356 O.2       1 <0>        -0.4218
     18 C14         1.9892  -10.9744   -3.3240 C.3       1 <0>        -0.1965
     19 C15         2.2393  -12.4263   -3.7367 C.3       1 <0>        -0.0006
     20 N1          1.6715  -13.3276   -2.7252 N.4       1 <0>        -0.3854
     21 C16         2.3918  -13.1557   -1.4561 C.3       1 <0>        -0.0510
     22 C17         1.7982  -14.0956   -0.4038 C.3       1 <0>         0.0367
     23 O3          1.8798  -15.4434   -0.8758 O.3       1 <0>        -0.3560
     24 C18         1.2127  -15.6560   -2.1230 C.3       1 <0>         0.0361
     25 C19         1.8052  -14.7190   -3.1784 C.3       1 <0>        -0.0433
     26 H1          1.0039    1.9031    0.0027 H         1 <0>         0.0548
     27 H2         -0.5459    1.8868   -0.8726 H         1 <0>         0.0548
     28 H3         -0.5289    1.8773    0.9072 H         1 <0>         0.0557
     29 H4          0.5293   -0.3651    0.8851 H         1 <0>         0.0611
     30 H5         -1.0205   -0.3814    0.0098 H         1 <0>         0.0611
     31 H6          0.1910   -0.1364   -2.1398 H         1 <0>         0.0652
     32 H7          1.7408   -0.1202   -1.2645 H         1 <0>         0.0652
     33 H8          1.2661   -2.3884   -0.3821 H         1 <0>         0.0661
     34 H9         -0.2836   -2.4046   -1.2575 H         1 <0>         0.0661
     35 H10         0.9279   -2.1597   -3.4071 H         1 <0>         0.0791
     36 H11         2.4777   -2.1435   -2.5317 H         1 <0>         0.0791
     37 H12         2.0030   -4.4117   -1.6494 H         1 <0>         0.0720
     38 H13         0.4533   -4.4279   -2.5247 H         1 <0>         0.0720
     39 H14         1.2146   -6.3059   -2.0483 H         1 <0>         0.1533
     40 H15         1.3969   -8.7261   -2.3257 H         1 <0>         0.1454
     41 H16         2.4625  -10.7837   -2.3608 H         1 <0>         0.1224
     42 H17         0.9164  -10.7994   -3.2427 H         1 <0>         0.1242
     43 H18         1.7661  -12.6169   -4.6999 H         1 <0>         0.1423
     44 H19         3.3121  -12.6012   -3.8181 H         1 <0>         0.1402
     45 H20         3.4460  -13.3919   -1.6014 H         1 <0>         0.1415
     46 H21         2.2932  -12.1238   -1.1189 H         1 <0>         0.1422
     47 H22         2.3587  -14.0011    0.5263 H         1 <0>         0.1423
     48 H23         0.7547  -13.8337   -0.2290 H         1 <0>         0.0816
     49 H24         1.3493  -16.6908   -2.4371 H         1 <0>         0.1432
     50 H25         0.1491  -15.4475   -2.0070 H         1 <0>         0.0818
     51 H26         1.2711  -14.8476   -4.1198 H         1 <0>         0.1447
     52 H27         2.8595  -14.9546   -3.3231 H         1 <0>         0.1409
     53 H28         0.6955  -13.1099   -2.5905 H         1 <0>         0.4228
@<TRIPOS>BOND
     1    1    2 1
     2    1   26 1
     3    1   27 1
     4    1   28 1
     5    2    3 1
     6    2   29 1
     7    2   30 1
     8    3    4 1
     9    3   31 1
    10    3   32 1
    11    4    5 1
    12    4   33 1
    13    4   34 1
    14    5    6 1
    15    5   35 1
    16    5   36 1
    17    6    7 1
    18    6   37 1
    19    6   38 1
    20    7    8 1
    21    8   13 ar
    22    8    9 ar
    23    9   10 ar
    24    9   39 1
    25   10   11 ar
    26   10   40 1
    27   11   12 ar
    28   11   16 1
    29   12   13 ar
    30   12   15 1
    31   13   14 1
    32   16   17 2
    33   16   18 1
    34   18   19 1
    35   18   41 1
    36   18   42 1
    37   19   20 1
    38   19   43 1
    39   19   44 1
    40   20   25 1
    41   20   21 1
    42   20   53 1
    43   21   22 1
    44   21   45 1
    45   21   46 1
    46   22   23 1
    47   22   47 1
    48   22   48 1
    49   23   24 1
    50   24   25 1
    51   24   49 1
    52   24   50 1
    53   25   51 1
    54   25   52 1
@<TRIPOS>MOLECULE
CHEMBL125381
   48    50     0     0     0
SMALL
USER_CHARGES

@<TRIPOS>ATOM
      1 C1         -1.0234    1.3051    0.1204 C.3       1 <0>        -0.1146
      2 C2         -0.4798   -0.0990    0.0549 C.ar      1 <0>        -0.0676
      3 C3         -0.4765   -0.7823   -1.1444 C.ar      1 <0>        -0.0911
      4 C4          0.0246   -2.0764   -1.2047 C.ar      1 <0>         0.1637
      5 C5          0.5220   -2.6821   -0.0579 C.ar      1 <0>        -0.0978
      6 C6          0.5181   -1.9977    1.1408 C.ar      1 <0>        -0.0711
      7 C7          0.0225   -0.7026    1.1992 C.ar      1 <0>         0.0866
      8 O1          0.0245   -0.0270    2.3785 O.3       1 <0>        -0.2487
      9 C8         -1.0657   -0.1434    3.1826 C.ar      1 <0>         0.1175
     10 C9         -2.1338   -0.9385    2.7925 C.ar      1 <0>        -0.1814
     11 C10        -3.2408   -1.0571    3.6096 C.ar      1 <0>        -0.1021
     12 C11        -3.2852   -0.3809    4.8201 C.ar      1 <0>         0.0738
     13 C12        -2.2176    0.4139    5.2101 C.ar      1 <0>        -0.0611
     14 C13        -1.1077    0.5281    4.3956 C.ar      1 <0>        -0.1267
     15 C14        -2.2660    1.1484    6.5251 C.3       1 <0>        -0.0570
     16 C15        -1.1043    0.6894    7.4086 C.3       1 <0>        -0.1457
     17 C16        -2.1515    2.6532    6.2732 C.3       1 <0>        -0.1440
     18 O2         -4.3756   -0.4969    5.6241 O.3       1 <0>        -0.4927
     19 C17         1.0573   -2.6548    2.3852 C.3       1 <0>        -0.1141
     20 N1          0.0278   -2.7704   -2.4211 N.am      1 <0>        -0.4001
     21 C18         0.5135   -2.1739   -3.5242 C.2       1 <0>         0.6818
     22 O3          0.9435   -1.0389   -3.4511 O.2       1 <0>        -0.5135
     23 N2          0.5314   -2.8145   -4.7081 N.am      1 <0>        -0.6548
     24 H1          0.8854   -2.3703   -5.4943 H         1 <0>         0.4381
     25 C19         0.0575   -4.0742   -4.8016 C.2       1 <0>         0.5171
     26 O4          0.0711   -4.6601   -5.8685 O.2       1 <0>        -0.4718
     27 C20        -0.4732   -4.7285   -3.6030 C.2       1 <0>         0.0583
     28 N3         -0.4693   -4.0782   -2.4717 N.2       1 <0>        -0.1659
     29 H2         -0.2206    2.0151   -0.0778 H         1 <0>         0.0819
     30 H3         -1.8081    1.4261   -0.6264 H         1 <0>         0.0726
     31 H4         -1.4348    1.4895    1.1128 H         1 <0>         0.0724
     32 H5         -0.8637   -0.3110   -2.0357 H         1 <0>         0.1380
     33 H6          0.9114   -3.6884   -0.1040 H         1 <0>         0.1402
     34 H7         -2.0995   -1.4644    1.8498 H         1 <0>         0.1305
     35 H8         -4.0722   -1.6759    3.3060 H         1 <0>         0.1323
     36 H9         -0.2745    1.1435    4.7013 H         1 <0>         0.1364
     37 H10        -3.2101    0.9346    7.0261 H         1 <0>         0.0881
     38 H11        -0.1602    0.9031    6.9076 H         1 <0>         0.0581
     39 H12        -1.1393    1.2206    8.3598 H         1 <0>         0.0610
     40 H13        -1.1858   -0.3827    7.5880 H         1 <0>         0.0549
     41 H14        -2.9791    2.9802    5.6437 H         1 <0>         0.0569
     42 H15        -2.1865    3.1844    7.2243 H         1 <0>         0.0606
     43 H16        -1.2074    2.8670    5.7722 H         1 <0>         0.0573
     44 H17        -4.3211   -1.2250    6.2581 H         1 <0>         0.3868
     45 H18         2.1224   -2.4418    2.4762 H         1 <0>         0.0805
     46 H19         0.5330   -2.2654    3.2580 H         1 <0>         0.0719
     47 H20         0.9064   -3.7324    2.3216 H         1 <0>         0.0737
     48 H21        -0.8578   -5.7364   -3.6540 H         1 <0>         0.2308
@<TRIPOS>BOND
     1    1    2 1
     2    1   29 1
     3    1   30 1
     4    1   31 1
     5    2    7 ar
     6    2    3 ar
     7    3    4 ar
     8    3   32 1
     9    4    5 ar
    10    4   20 1
    11    5    6 ar
    12    5   33 1
    13    6    7 ar
    14    6   19 1
    15    7    8 1
    16    8    9 1
    17    9   14 ar
    18    9   10 ar
    19   10   11 ar
    20   10   34 1
    21   11   12 ar
    22   11   35 1
    23   12   13 ar
    24   12   18 1
    25   13   14 ar
    26   13   15 1
    27   14   36 1
    28   15   16 1
    29   15   17 1
    30   15   37 1
    31   16   38 1
    32   16   39 1
    33   16   40 1
    34   17   41 1
    35   17   42 1
    36   17   43 1
    37   18   44 1
    38   19   45 1
    39   19   46 1
    40   19   47 1
    41   20   28 1
    42   20   21 am
    43   21   22 2
    44   21   23 am
    45   23   24 1
    46   23   25 am
    47   25   26 2
    48   25   27 1
    49   27   28 2
    50   27   48 1
@<TRIPOS>MOLECULE
CHEMBL125381__1
   47    49     0     0     0
SMALL
USER_CHARGES

@<TRIPOS>ATOM
      1 C1         -1.0273    1.3035    0.1213 C.3       1 <0>        -0.1091
      2 C2         -0.4817   -0.0997    0.0553 C.ar      1 <0>        -0.0724
      3 C3         -0.4784   -0.7829   -1.1439 C.ar      1 <0>        -0.0896
      4 C4          0.0246   -2.0766   -1.2046 C.ar      1 <0>         0.1789
      5 C5          0.5239   -2.6815   -0.0579 C.ar      1 <0>        -0.1088
      6 C6          0.5200   -1.9971    1.1406 C.ar      1 <0>        -0.0766
      7 C7          0.0225   -0.7026    1.1993 C.ar      1 <0>         0.0629
      8 O1          0.0241   -0.0273    2.3786 O.3       1 <0>        -0.2468
      9 C8         -1.0653   -0.1457    3.1834 C.ar      1 <0>         0.1244
     10 C9         -2.1323   -0.9426    2.7939 C.ar      1 <0>        -0.1798
     11 C10        -3.2388   -1.0627    3.6114 C.ar      1 <0>        -0.1012
     12 C11        -3.2836   -0.3867    4.8220 C.ar      1 <0>         0.0655
     13 C12        -2.2174    0.4102    5.2112 C.ar      1 <0>        -0.0645
     14 C13        -1.1078    0.5256    4.3964 C.ar      1 <0>        -0.1324
     15 C14        -2.2664    1.1448    6.5261 C.3       1 <0>        -0.0549
     16 C15        -1.1033    0.6882    7.4091 C.3       1 <0>        -0.1450
     17 C16        -2.1550    2.6498    6.2739 C.3       1 <0>        -0.1434
     18 O2         -4.3731   -0.5051    5.6269 O.3       1 <0>        -0.4939
     19 C17         1.0616   -2.6532    2.3845 C.3       1 <0>        -0.1081
     20 N1          0.0278   -2.7702   -2.4203 N.am      1 <0>        -0.3691
     21 C18         0.5148   -2.1688   -3.5206 C.2       1 <0>         0.6168
     22 O3          0.9462   -1.0300   -3.4477 O.2       1 <0>        -0.5724
     23 N2          0.5297   -2.8101   -4.6927 N.2       1 <0>        -0.6279
     24 C19         0.0576   -4.0476   -4.7576 C.2       1 <0>         0.4339
     25 O4          0.0585   -4.7246   -5.9277 O.3       1 <0>        -0.6514
     26 C20        -0.4456   -4.6448   -3.5812 C.2       1 <0>        -0.0058
     27 N3         -0.4302   -3.9719   -2.4613 N.2       1 <0>        -0.2179
     28 H1         -0.2256    2.0148   -0.0776 H         1 <0>         0.0775
     29 H2         -1.8128    1.4235   -0.6249 H         1 <0>         0.0699
     30 H3         -1.4381    1.4873    1.1140 H         1 <0>         0.0661
     31 H4         -0.8671   -0.3122   -2.0348 H         1 <0>         0.1375
     32 H5          0.9147   -3.6873   -0.1043 H         1 <0>         0.1352
     33 H6         -2.0976   -1.4686    1.8513 H         1 <0>         0.1339
     34 H7         -4.0695   -1.6827    3.3081 H         1 <0>         0.1306
     35 H8         -0.2754    1.1424    4.7017 H         1 <0>         0.1341
     36 H9         -3.2098    0.9293    7.0278 H         1 <0>         0.0860
     37 H10        -0.1599    0.9037    6.9074 H         1 <0>         0.0584
     38 H11        -1.1387    1.2196    8.3601 H         1 <0>         0.0583
     39 H12        -1.1826   -0.3839    7.5887 H         1 <0>         0.0544
     40 H13        -2.9836    2.9751    5.6448 H         1 <0>         0.0566
     41 H14        -2.1904    3.1812    7.2249 H         1 <0>         0.0579
     42 H15        -1.2116    2.8653    5.7722 H         1 <0>         0.0577
     43 H16        -4.3166   -1.2331    6.2608 H         1 <0>         0.3831
     44 H17         2.1264   -2.4383    2.4744 H         1 <0>         0.0750
     45 H18         0.5375   -2.2647    3.2577 H         1 <0>         0.0662
     46 H19         0.9126   -3.7311    2.3211 H         1 <0>         0.0698
     47 H20        -0.8360   -5.6515   -3.6060 H         1 <0>         0.1805
@<TRIPOS>BOND
     1    1    2 1
     2    1   28 1
     3    1   29 1
     4    1   30 1
     5    2    7 ar
     6    2    3 ar
     7    3    4 ar
     8    3   31 1
     9    4    5 ar
    10    4   20 1
    11    5    6 ar
    12    5   32 1
    13    6    7 ar
    14    6   19 1
    15    7    8 1
    16    8    9 1
    17    9   14 ar
    18    9   10 ar
    19   10   11 ar
    20   10   33 1
    21   11   12 ar
    22   11   34 1
    23   12   13 ar
    24   12   18 1
    25   13   14 ar
    26   13   15 1
    27   14   35 1
    28   15   16 1
    29   15   17 1
    30   15   36 1
    31   16   37 1
    32   16   38 1
    33   16   39 1
    34   17   40 1
    35   17   41 1
    36   17   42 1
    37   18   43 1
    38   19   44 1
    39   19   45 1
    40   19   46 1
    41   20   27 1
    42   20   21 am
    43   21   22 2
    44   21   23 1
    45   23   24 2
    46   24   25 1
    47   24   26 1
    48   26   27 2
    49   26   47 1
@<TRIPOS>MOLECULE
CHEMBL413699
   53    56     0     0     0
SMALL
USER_CHARGES

@<TRIPOS>ATOM
      1 C1         -0.1119    1.2086    0.9656 C.ar      1 <0>        -0.1467
      2 C2          1.0211    1.8311    1.4503 C.ar      1 <0>        -0.1123
      3 C3          2.2343    1.1599    1.4600 C.ar      1 <0>         0.1445
      4 C4          2.3080   -0.1531    0.9761 C.ar      1 <0>        -0.1291
      5 C5          1.1572   -0.7756    0.4874 C.ar      1 <0>        -0.0910
      6 C6         -0.0459   -0.0932    0.4843 C.ar      1 <0>         0.1060
      7 O1         -1.1670   -0.6979    0.0089 O.3       1 <0>        -0.2359
      8 C7         -2.3285    0.0086    0.0240 C.ar      1 <0>         0.1065
      9 C8         -3.1595   -0.0455    1.1351 C.ar      1 <0>        -0.0250
     10 C9         -4.3398    0.6723    1.1507 C.ar      1 <0>        -0.0793
     11 C10        -4.6952    1.4481    0.0548 C.ar      1 <0>         0.1867
     12 C11        -3.8638    1.5020   -1.0566 C.ar      1 <0>        -0.0736
     13 C12        -2.6808    0.7885   -1.0694 C.ar      1 <0>        -0.0223
     14 Cl1        -1.6382    0.8615   -2.4555 Cl        1 <0>        -0.0158
     15 N1         -5.8918    2.1754    0.0701 N.am      1 <0>        -0.4044
     16 C13        -6.7309    2.0949   -0.9778 C.2       1 <0>         0.6842
     17 O2         -6.4394    1.3912   -1.9256 O.2       1 <0>        -0.5103
     18 N2         -7.8889    2.7814   -0.9932 N.am      1 <0>        -0.6531
     19 H1         -8.4832    2.7122   -1.7566 H         1 <0>         0.4402
     20 C14        -8.2234    3.5651    0.0527 C.2       1 <0>         0.5164
     21 O3         -9.2691    4.1880    0.0463 O.2       1 <0>        -0.4656
     22 C15        -7.3126    3.6566    1.1967 C.2       1 <0>         0.0697
     23 N3         -6.2017    2.9724    1.1786 N.2       1 <0>        -0.1685
     24 Cl2        -2.7155   -1.0157    2.5045 Cl        1 <0>        -0.0175
     25 C16         3.5951   -0.8743    0.9823 C.2       1 <0>         0.5615
     26 O4          4.5953   -0.3295    1.4080 O.2       1 <0>        -0.5136
     27 N4          3.6623   -2.1371    0.5161 N.am      1 <0>        -0.7247
     28 C17         4.9403   -2.8532    0.5223 C.3       1 <0>         0.1468
     29 C18         5.7285   -2.5010   -0.7409 C.3       1 <0>        -0.1300
     30 C19         7.0632   -3.2488   -0.7344 C.3       1 <0>        -0.1174
     31 C20         6.8031   -4.7562   -0.6994 C.3       1 <0>        -0.1229
     32 C21         6.0149   -5.1084    0.5638 C.3       1 <0>        -0.1160
     33 C22         4.6802   -4.3606    0.5574 C.3       1 <0>        -0.1272
     34 O5          3.3475    1.7731    1.9364 O.3       1 <0>        -0.4737
     35 H2         -1.0551    1.7346    0.9646 H         1 <0>         0.1328
     36 H3          0.9624    2.8432    1.8225 H         1 <0>         0.1435
     37 H4          1.2066   -1.7872    0.1126 H         1 <0>         0.1413
     38 H5         -4.9863    0.6299    2.0148 H         1 <0>         0.1595
     39 H6         -4.1399    2.1052   -1.9088 H         1 <0>         0.1572
     40 H7         -7.5596    4.2777    2.0450 H         1 <0>         0.2341
     41 H8          2.8644   -2.5718    0.1765 H         1 <0>         0.3987
     42 H9          5.5151   -2.5632    1.4019 H         1 <0>         0.0900
     43 H10         5.1537   -2.7910   -1.6204 H         1 <0>         0.0636
     44 H11         5.9138   -1.4271   -0.7658 H         1 <0>         0.0683
     45 H12         7.6247   -2.9979   -1.6343 H         1 <0>         0.0654
     46 H13         7.6379   -2.9588    0.1452 H         1 <0>         0.0649
     47 H14         6.2283   -5.0462   -1.5789 H         1 <0>         0.0628
     48 H15         7.7539   -5.2890   -0.6948 H         1 <0>         0.0645
     49 H16         5.8296   -6.1823    0.5888 H         1 <0>         0.0679
     50 H17         6.5897   -4.8184    1.4434 H         1 <0>         0.0656
     51 H18         4.1187   -4.6115    1.4573 H         1 <0>         0.0693
     52 H19         4.1054   -4.6506   -0.3222 H         1 <0>         0.0685
     53 H20         3.4934    1.6431    2.8834 H         1 <0>         0.3953
@<TRIPOS>BOND
     1    1    6 ar
     2    1    2 ar
     3    1   35 1
     4    2    3 ar
     5    2   36 1
     6    3    4 ar
     7    3   34 1
     8    4    5 ar
     9    4   25 1
    10    5    6 ar
    11    5   37 1
    12    6    7 1
    13    7    8 1
    14    8   13 ar
    15    8    9 ar
    16    9   10 ar
    17    9   24 1
    18   10   11 ar
    19   10   38 1
    20   11   12 ar
    21   11   15 1
    22   12   13 ar
    23   12   39 1
    24   13   14 1
    25   15   23 1
    26   15   16 am
    27   16   17 2
    28   16   18 am
    29   18   19 1
    30   18   20 am
    31   20   21 2
    32   20   22 1
    33   22   23 2
    34   22   40 1
    35   25   26 2
    36   25   27 am
    37   27   28 1
    38   27   41 1
    39   28   33 1
    40   28   29 1
    41   28   42 1
    42   29   30 1
    43   29   43 1
    44   29   44 1
    45   30   31 1
    46   30   45 1
    47   30   46 1
    48   31   32 1
    49   31   47 1
    50   31   48 1
    51   32   33 1
    52   32   49 1
    53   32   50 1
    54   33   51 1
    55   33   52 1
    56   34   53 1
@<TRIPOS>MOLECULE
CHEMBL413699__1
   52    55     0     0     0
SMALL
USER_CHARGES

@<TRIPOS>ATOM
      1 C1         -0.1127    1.2072    0.9692 C.ar      1 <0>        -0.1444
      2 C2          1.0199    1.8290    1.4558 C.ar      1 <0>        -0.1119
      3 C3          2.2330    1.1578    1.4656 C.ar      1 <0>         0.1374
      4 C4          2.3071   -0.1546    0.9800 C.ar      1 <0>        -0.1331
      5 C5          1.1567   -0.7763    0.4895 C.ar      1 <0>        -0.0964
      6 C6         -0.0463   -0.0939    0.4861 C.ar      1 <0>         0.1132
      7 O1         -1.1670   -0.6979    0.0089 O.3       1 <0>        -0.2342
      8 C7         -2.3284    0.0085    0.0239 C.ar      1 <0>         0.0813
      9 C8         -3.1605   -0.0472    1.1342 C.ar      1 <0>        -0.0221
     10 C9         -4.3407    0.6705    1.1498 C.ar      1 <0>        -0.0913
     11 C10        -4.6951    1.4480    0.0545 C.ar      1 <0>         0.2019
     12 C11        -3.8625    1.5035   -1.0562 C.ar      1 <0>        -0.0726
     13 C12        -2.6797    0.7901   -1.0688 C.ar      1 <0>        -0.0194
     14 Cl1        -1.6357    0.8650   -2.4538 Cl        1 <0>        -0.0319
     15 N1         -5.8911    2.1750    0.0698 N.am      1 <0>        -0.3717
     16 C13        -6.7266    2.0909   -0.9811 C.2       1 <0>         0.6175
     17 O2         -6.4346    1.3846   -1.9320 O.2       1 <0>        -0.5687
     18 N2         -7.8743    2.7750   -0.9905 N.2       1 <0>        -0.6230
     19 C14        -8.1794    3.5385    0.0499 C.2       1 <0>         0.4331
     20 O3         -9.3327    4.2432    0.0724 O.3       1 <0>        -0.6439
     21 C15        -7.2768    3.6009    1.1340 C.2       1 <0>         0.0088
     22 N3         -6.1712    2.9059    1.0910 N.2       1 <0>        -0.2231
     23 Cl2        -2.7177   -1.0193    2.5027 Cl        1 <0>        -0.0356
     24 C16         3.5942   -0.8758    0.9864 C.2       1 <0>         0.5645
     25 O4          4.5940   -0.3315    1.4137 O.2       1 <0>        -0.5178
     26 N4          3.6618   -2.1380    0.5185 N.am      1 <0>        -0.7262
     27 C17         4.9398   -2.8541    0.5249 C.3       1 <0>         0.1476
     28 C18         5.7291   -2.5001   -0.7371 C.3       1 <0>        -0.1307
     29 C19         7.0638   -3.2480   -0.7305 C.3       1 <0>        -0.1167
     30 C20         6.8036   -4.7554   -0.6978 C.3       1 <0>        -0.1225
     31 C21         6.0143   -5.1094    0.5642 C.3       1 <0>        -0.1153
     32 C22         4.6796   -4.3615    0.5576 C.3       1 <0>        -0.1280
     33 O5          3.3458    1.7704    1.9438 O.3       1 <0>        -0.4749
     34 H1         -1.0560    1.7333    0.9681 H         1 <0>         0.1361
     35 H2          0.9608    2.8406    1.8293 H         1 <0>         0.1420
     36 H3          1.2065   -1.7875    0.1133 H         1 <0>         0.1390
     37 H4         -4.9879    0.6269    2.0133 H         1 <0>         0.1548
     38 H5         -4.1380    2.1077   -1.9080 H         1 <0>         0.1569
     39 H6         -7.5006    4.2148    1.9939 H         1 <0>         0.1840
     40 H7          2.8642   -2.5722    0.1776 H         1 <0>         0.3995
     41 H8          5.5138   -2.5653    1.4053 H         1 <0>         0.0888
     42 H9          5.1551   -2.7890   -1.6176 H         1 <0>         0.0639
     43 H10         5.9144   -1.4262   -0.7605 H         1 <0>         0.0686
     44 H11         7.6261   -2.9958   -1.6296 H         1 <0>         0.0644
     45 H12         7.6377   -2.9592    0.1500 H         1 <0>         0.0641
     46 H13         6.2296   -5.0442   -1.5782 H         1 <0>         0.0628
     47 H14         7.7544   -5.2882   -0.6930 H         1 <0>         0.0631
     48 H15         5.8289   -6.1833    0.5876 H         1 <0>         0.0669
     49 H16         6.5883   -4.8206    1.4447 H         1 <0>         0.0649
     50 H17         4.1173   -4.6137    1.4567 H         1 <0>         0.0695
     51 H18         4.1056   -4.6503   -0.3229 H         1 <0>         0.0689
     52 H19         3.4908    1.6390    2.8908 H         1 <0>         0.3918
@<TRIPOS>BOND
     1    1    6 ar
     2    1    2 ar
     3    1   34 1
     4    2    3 ar
     5    2   35 1
     6    3    4 ar
     7    3   33 1
     8    4    5 ar
     9    4   24 1
    10    5    6 ar
    11    5   36 1
    12    6    7 1
    13    7    8 1
    14    8   13 ar
    15    8    9 ar
    16    9   10 ar
    17    9   23 1
    18   10   11 ar
    19   10   37 1
    20   11   12 ar
    21   11   15 1
    22   12   13 ar
    23   12   38 1
    24   13   14 1
    25   15   22 1
    26   15   16 am
    27   16   17 2
    28   16   18 1
    29   18   19 2
    30   19   20 1
    31   19   21 1
    32   21   22 2
    33   21   39 1
    34   24   25 2
    35   24   26 am
    36   26   27 1
    37   26   40 1
    38   27   32 1
    39   27   28 1
    40   27   41 1
    41   28   29 1
    42   28   42 1
    43   28   43 1
    44   29   30 1
    45   29   44 1
    46   29   45 1
    47   30   31 1
    48   30   46 1
    49   30   47 1
    50   31   32 1
    51   31   48 1
    52   31   49 1
    53   32   50 1
    54   32   51 1
    55   33   52 1
@<TRIPOS>MOLECULE
CHEMBL44667
   54    56     0     0     0
SMALL
USER_CHARGES

@<TRIPOS>ATOM
      1 C1         -0.4032    1.4773    0.0172 C.3       1 <0>        -0.1410
      2 C2         -0.1878   -0.0142    0.0041 C.ar      1 <0>         0.0430
      3 C3         -0.1795   -0.6993   -1.1949 C.ar      1 <0>        -0.1603
      4 C4          0.0192   -2.0744   -1.2060 C.ar      1 <0>         0.2325
      5 C5          0.2089   -2.7554   -0.0098 C.ar      1 <0>        -0.1885
      6 C6          0.1993   -2.0639    1.1855 C.ar      1 <0>         0.0426
      7 C7          0.0069   -0.6943    1.1924 C.ar      1 <0>        -0.6974
      8 S1          0.0032    0.1850    2.7192 S.o2      1 <0>         2.5831
      9 O1          0.7496   -0.5980    3.6407 O.2       1 <0>        -0.9396
     10 O2          0.3420    1.5308    2.4137 O.2       1 <0>        -0.9378
     11 C8         -1.6584    0.2046    3.3052 C.ar      1 <0>        -0.6623
     12 C9         -2.5070    1.2335    2.9398 C.ar      1 <0>        -0.0108
     13 C10        -3.8099    1.2513    3.3981 C.ar      1 <0>        -0.1609
     14 C11        -4.2671    0.2356    4.2254 C.ar      1 <0>         0.1623
     15 C12        -3.4139   -0.7956    4.5901 C.ar      1 <0>        -0.1203
     16 C13        -2.1131   -0.8116    4.1248 C.ar      1 <0>        -0.0041
     17 C14        -3.9071   -1.9004    5.4886 C.3       1 <0>        -0.0453
     18 C15        -3.0639   -1.9347    6.7647 C.3       1 <0>        -0.1142
     19 C16        -3.5646   -3.0563    7.6769 C.3       1 <0>        -0.1181
     20 C17        -3.4441   -4.3971    6.9498 C.3       1 <0>        -0.1224
     21 C18        -4.2874   -4.3628    5.6736 C.3       1 <0>        -0.1184
     22 C19        -3.7866   -3.2411    4.7615 C.3       1 <0>        -0.1162
     23 O3         -5.5484    0.2511    4.6781 O.3       1 <0>        -0.4941
     24 C20         0.4044   -2.8016    2.4834 C.3       1 <0>        -0.1400
     25 N1          0.0278   -2.7707   -2.4168 N.am      1 <0>        -0.6660
     26 C21         0.5075   -2.1810   -3.5298 C.2       1 <0>         0.4519
     27 O4          1.0192   -1.0829   -3.4623 O.2       1 <0>        -0.5148
     28 C22         0.4090   -2.8803   -4.8483 C.2       1 <0>         0.5005
     29 O5          0.8433   -2.3464   -5.8561 O.co2     1 <0>        -0.6337
     30 O6         -0.1057   -3.9847   -4.9163 O.co2     1 <0>        -0.6633
     31 H1          0.5586    1.9840   -0.0616 H         1 <0>         0.0949
     32 H2         -1.0333    1.7608   -0.8258 H         1 <0>         0.0742
     33 H3         -0.8907    1.7658    0.9484 H         1 <0>         0.0816
     34 H4         -0.3275   -0.1669   -2.1228 H         1 <0>         0.1443
     35 H5          0.3632   -3.8243   -0.0148 H         1 <0>         0.1349
     36 H6         -2.1507    2.0239    2.2958 H         1 <0>         0.1470
     37 H7         -4.4721    2.0555    3.1131 H         1 <0>         0.1400
     38 H8         -1.4496   -1.6163    4.4051 H         1 <0>         0.1450
     39 H9         -4.9505   -1.7198    5.7473 H         1 <0>         0.0878
     40 H10        -2.0205   -2.1152    6.5061 H         1 <0>         0.0673
     41 H11        -3.1497   -0.9795    7.2828 H         1 <0>         0.0641
     42 H12        -2.9638   -3.0808    8.5861 H         1 <0>         0.0633
     43 H13        -4.6080   -2.8758    7.9356 H         1 <0>         0.0615
     44 H14        -2.4007   -4.5776    6.6911 H         1 <0>         0.0641
     45 H15        -3.8008   -5.1962    7.5996 H         1 <0>         0.0610
     46 H16        -4.2015   -5.3180    5.1556 H         1 <0>         0.0642
     47 H17        -5.3307   -4.1823    5.9323 H         1 <0>         0.0614
     48 H18        -4.3874   -3.2167    3.8523 H         1 <0>         0.0637
     49 H19        -2.7433   -3.4217    4.5028 H         1 <0>         0.0674
     50 H20        -6.1750   -0.2061    4.1008 H         1 <0>         0.3968
     51 H21         1.4681   -2.8327    2.7195 H         1 <0>         0.0936
     52 H22        -0.1302   -2.2873    3.2821 H         1 <0>         0.0812
     53 H23         0.0237   -3.8185    2.3875 H         1 <0>         0.0732
     54 H24        -0.3114   -3.6785   -2.4567 H         1 <0>         0.4215
@<TRIPOS>BOND
     1    1    2 1
     2    1   31 1
     3    1   32 1
     4    1   33 1
     5    2    7 ar
     6    2    3 ar
     7    3    4 ar
     8    3   34 1
     9    4    5 ar
    10    4   25 1
    11    5    6 ar
    12    5   35 1
    13    6    7 ar
    14    6   24 1
    15    7    8 1
    16    8    9 2
    17    8   10 2
    18    8   11 1
    19   11   16 ar
    20   11   12 ar
    21   12   13 ar
    22   12   36 1
    23   13   14 ar
    24   13   37 1
    25   14   15 ar
    26   14   23 1
    27   15   16 ar
    28   15   17 1
    29   16   38 1
    30   17   22 1
    31   17   18 1
    32   17   39 1
    33   18   19 1
    34   18   40 1
    35   18   41 1
    36   19   20 1
    37   19   42 1
    38   19   43 1
    39   20   21 1
    40   20   44 1
    41   20   45 1
    42   21   22 1
    43   21   46 1
    44   21   47 1
    45   22   48 1
    46   22   49 1
    47   23   50 1
    48   24   51 1
    49   24   52 1
    50   24   53 1
    51   25   26 am
    52   25   54 1
    53   26   27 2
    54   26   28 1
    55   28   29 2
    56   28   30 1
@<TRIPOS>MOLECULE
CHEMBL250104
   34    35     0     0     0
SMALL
USER_CHARGES

@<TRIPOS>ATOM
      1 C1         -0.0167    1.3778    0.0096 C.ar      1 <0>        -0.1173
      2 C2          1.1711    2.0855    0.0021 C.ar      1 <0>        -0.0763
      3 C3          2.3776    1.4114   -0.0135 C.ar      1 <0>        -0.0792
      4 C4          2.3973    0.0292   -0.0216 C.ar      1 <0>        -0.0634
      5 C5          1.2095   -0.6792   -0.0136 C.ar      1 <0>        -0.0945
      6 C6          0.0021   -0.0041    0.0020 C.ar      1 <0>        -0.0833
      7 Br1         1.2358   -2.5700   -0.0253 Br        1 <0>        -0.0508
      8 C7          3.6719    2.1834   -0.0223 C.3       1 <0>         0.1040
      9 O1          4.0943    2.4202    1.3222 O.3       1 <0>        -0.3093
     10 C8          5.2534    3.1095    1.4925 C.ar      1 <0>         0.1290
     11 C9          6.4620    2.4310    1.5622 C.ar      1 <0>        -0.1008
     12 C10         7.6393    3.1347    1.7349 C.ar      1 <0>        -0.0651
     13 C11         7.6134    4.5131    1.8387 C.ar      1 <0>        -0.0522
     14 C12         6.4107    5.1917    1.7701 C.ar      1 <0>        -0.0653
     15 C13         5.2310    4.4936    1.5912 C.ar      1 <0>        -0.1003
     16 Br2         3.5874    5.4232    1.4897 Br        1 <0>        -0.0350
     17 C14         8.8984    5.2774    2.0275 C.3       1 <0>        -0.0611
     18 C15         9.4778    5.6465    0.6604 C.3       1 <0>        -0.1770
     19 C16        10.7629    6.4108    0.8492 C.2       1 <0>         0.4903
     20 O2         11.1769    6.6391    1.9730 O.co2     1 <0>        -0.6967
     21 O3         11.3885    6.8008   -0.1219 O.co2     1 <0>        -0.7028
     22 Br3         6.4983    0.5456    1.4215 Br        1 <0>        -0.0336
     23 H1         -0.9592    1.9049    0.0260 H         1 <0>         0.1344
     24 H2          1.1560    3.1654    0.0080 H         1 <0>         0.1319
     25 H3          3.3402   -0.4974   -0.0346 H         1 <0>         0.1348
     26 H4         -0.9257   -0.5568    0.0083 H         1 <0>         0.1332
     27 H5          4.4346    1.6080   -0.5468 H         1 <0>         0.0690
     28 H6          3.5229    3.1366   -0.5295 H         1 <0>         0.0703
     29 H7          8.5801    2.6071    1.7892 H         1 <0>         0.1449
     30 H8          6.3934    6.2684    1.8518 H         1 <0>         0.1449
     31 H9          8.7005    6.1863    2.5956 H         1 <0>         0.0796
     32 H10         9.6131    4.6583    2.5698 H         1 <0>         0.0796
     33 H11         9.6758    4.7376    0.0923 H         1 <0>         0.0592
     34 H12         8.7632    6.2656    0.1181 H         1 <0>         0.0591
@<TRIPOS>BOND
     1    1    6 ar
     2    1    2 ar
     3    1   23 1
     4    2    3 ar
     5    2   24 1
     6    3    4 ar
     7    3    8 1
     8    4    5 ar
     9    4   25 1
    10    5    6 ar
    11    5    7 1
    12    6   26 1
    13    8    9 1
    14    8   27 1
    15    8   28 1
    16    9   10 1
    17   10   15 ar
    18   10   11 ar
    19   11   12 ar
    20   11   22 1
    21   12   13 ar
    22   12   29 1
    23   13   14 ar
    24   13   17 1
    25   14   15 ar
    26   14   30 1
    27   15   16 1
    28   17   18 1
    29   17   31 1
    30   17   32 1
    31   18   19 1
    32   18   33 1
    33   18   34 1
    34   19   20 2
    35   19   21 1
@<TRIPOS>MOLECULE
CHEMBL183863
   59    62     0     0     0
SMALL
USER_CHARGES

@<TRIPOS>ATOM
      1 C1          2.6700   -4.7626   -1.8766 C.3       1 <0>        -0.1543
      2 C2          1.6569   -3.8743   -1.1518 C.3       1 <0>         0.0566
      3 O1          0.3693   -4.4930   -1.1879 O.3       1 <0>        -0.3183
      4 C3         -0.6413   -3.8356   -0.5902 C.2       1 <0>         0.4652
      5 O2         -0.4365   -2.7677   -0.0535 O.2       1 <0>        -0.4715
      6 C4         -2.0148   -4.4211   -0.5879 C.2       1 <0>         0.5354
      7 O3         -2.2198   -5.4902   -1.1252 O.2       1 <0>        -0.4588
      8 N1         -3.0270   -3.7627    0.0108 N.am      1 <0>        -0.6398
      9 C5         -4.3306   -4.2624   -0.0697 C.ar      1 <0>         0.1414
     10 C6         -5.4062   -3.3873   -0.1562 C.ar      1 <0>        -0.0456
     11 C7         -6.6928   -3.8813   -0.2356 C.ar      1 <0>        -0.1795
     12 C8         -6.9119   -5.2517   -0.2290 C.ar      1 <0>         0.1869
     13 C9         -5.8380   -6.1265   -0.1427 C.ar      1 <0>        -0.1788
     14 C10        -4.5504   -5.6342   -0.0691 C.ar      1 <0>        -0.0315
     15 C11        -6.0771   -7.6144   -0.1357 C.3       1 <0>         0.5162
     16 F1         -4.8518   -8.2832   -0.0424 F         1 <0>        -0.1693
     17 F2         -6.8778   -7.9529    0.9604 F         1 <0>        -0.1630
     18 F3         -6.7236   -7.9884   -1.3187 F         1 <0>        -0.1629
     19 O4         -8.1791   -5.7374   -0.3068 O.3       1 <0>        -0.2531
     20 C12        -8.6935   -5.9840   -1.5410 C.ar      1 <0>         0.0885
     21 C13        -7.9216   -5.7429   -2.6751 C.ar      1 <0>        -0.1526
     22 C14        -8.4273   -5.9868   -3.9322 C.ar      1 <0>        -0.0858
     23 C15        -9.7201   -6.4789   -4.0784 C.ar      1 <0>         0.0791
     24 C16       -10.5019   -6.7238   -2.9355 C.ar      1 <0>        -0.0618
     25 C17        -9.9770   -6.4778   -1.6648 C.ar      1 <0>        -0.0856
     26 C18       -11.7878   -7.2275   -3.4241 C.2       1 <0>        -0.1675
     27 C19       -11.7147   -7.2571   -4.7642 C.2       1 <0>         0.0690
     28 N2        -10.4872   -6.8137   -5.1743 N.pl3     1 <0>        -0.5924
     29 H1        -10.1996   -6.7447   -6.0981 H         1 <0>         0.4180
     30 C20       -12.9689   -7.6357   -2.5818 C.3       1 <0>        -0.0056
     31 C21       -13.7966   -6.4196   -2.2544 C.ar      1 <0>        -0.0830
     32 C22       -13.5246   -5.6853   -1.1150 C.ar      1 <0>        -0.0822
     33 C23       -14.2826   -4.5697   -0.8140 C.ar      1 <0>        -0.1501
     34 C24       -15.3148   -4.1874   -1.6540 C.ar      1 <0>         0.0915
     35 C25       -15.5863   -4.9236   -2.7948 C.ar      1 <0>        -0.1527
     36 C26       -14.8235   -6.0358   -3.0965 C.ar      1 <0>        -0.0872
     37 F4        -16.0568   -3.0972   -1.3604 F         1 <0>        -0.1417
     38 C27        -7.8597   -2.9323   -0.3288 C.3       1 <0>         0.5169
     39 F5         -7.3909   -1.6142   -0.3172 F         1 <0>        -0.1722
     40 F6         -8.5587   -3.1682   -1.5175 F         1 <0>        -0.1623
     41 F7         -8.7127   -3.1335    0.7616 F         1 <0>        -0.1620
     42 H2          3.6522   -4.2907   -1.8491 H         1 <0>         0.0862
     43 H3          2.7196   -5.7337   -1.3840 H         1 <0>         0.0708
     44 H4          2.3601   -4.8963   -2.9130 H         1 <0>         0.0705
     45 H5          1.9669   -3.7406   -0.1154 H         1 <0>         0.0766
     46 H6          1.6073   -2.9032   -1.6444 H         1 <0>         0.0763
     47 H7         -2.8512   -2.9423    0.4974 H         1 <0>         0.4328
     48 H8         -5.2359   -2.3208   -0.1609 H         1 <0>         0.1655
     49 H9         -3.7145   -6.3151   -0.0067 H         1 <0>         0.1743
     50 H10        -6.9172   -5.3608   -2.5674 H         1 <0>         0.1243
     51 H11        -7.8203   -5.7956   -4.8048 H         1 <0>         0.1270
     52 H12       -10.5729   -6.6688   -0.7846 H         1 <0>         0.1334
     53 H13       -12.5075   -7.5828   -5.4213 H         1 <0>         0.1720
     54 H14       -13.5781   -8.3521   -3.1330 H         1 <0>         0.0837
     55 H15       -12.6155   -8.0940   -1.6582 H         1 <0>         0.0838
     56 H16       -12.7197   -5.9839   -0.4598 H         1 <0>         0.1309
     57 H17       -14.0702   -3.9964    0.0763 H         1 <0>         0.1342
     58 H18       -16.3913   -4.6265   -3.4505 H         1 <0>         0.1334
     59 H19       -15.0322   -6.6076   -3.9887 H         1 <0>         0.1306
@<TRIPOS>BOND
     1    1    2 1
     2    1   42 1
     3    1   43 1
     4    1   44 1
     5    2    3 1
     6    2   45 1
     7    2   46 1
     8    3    4 1
     9    4    5 2
    10    4    6 1
    11    6    7 2
    12    6    8 am
    13    8    9 1
    14    8   47 1
    15    9   14 ar
    16    9   10 ar
    17   10   11 ar
    18   10   48 1
    19   11   12 ar
    20   11   38 1
    21   12   13 ar
    22   12   19 1
    23   13   14 ar
    24   13   15 1
    25   14   49 1
    26   15   16 1
    27   15   17 1
    28   15   18 1
    29   19   20 1
    30   20   25 ar
    31   20   21 ar
    32   21   22 ar
    33   21   50 1
    34   22   23 ar
    35   22   51 1
    36   23   28 1
    37   23   24 ar
    38   24   25 ar
    39   24   26 1
    40   25   52 1
    41   26   27 2
    42   26   30 1
    43   27   28 1
    44   27   53 1
    45   28   29 1
    46   30   31 1
    47   30   54 1
    48   30   55 1
    49   31   36 ar
    50   31   32 ar
    51   32   33 ar
    52   32   56 1
    53   33   34 ar
    54   33   57 1
    55   34   35 ar
    56   34   37 1
    57   35   36 ar
    58   35   58 1
    59   36   59 1
    60   38   39 1
    61   38   40 1
    62   38   41 1
@<TRIPOS>MOLECULE
CHEMBL297183
   46    48     0     0     0
SMALL
USER_CHARGES

@<TRIPOS>ATOM
      1 C1         -0.4052    1.4771    0.0172 C.3       1 <0>        -0.1108
      2 C2         -0.1889   -0.0143    0.0041 C.ar      1 <0>        -0.0600
      3 C3         -0.1802   -0.6997   -1.1940 C.ar      1 <0>        -0.1256
      4 C4          0.0192   -2.0747   -1.2059 C.ar      1 <0>         0.1820
      5 C5          0.2096   -2.7587   -0.0114 C.ar      1 <0>        -0.1554
      6 C6          0.2005   -2.0717    1.1858 C.ar      1 <0>        -0.0628
      7 C7          0.0070   -0.6974    1.1963 C.ar      1 <0>         0.0344
      8 O1          0.0037   -0.0209    2.3752 O.3       1 <0>        -0.2442
      9 C8         -1.1819    0.1242    3.0245 C.ar      1 <0>         0.1247
     10 C9         -2.3400   -0.4166    2.4819 C.ar      1 <0>        -0.1701
     11 C10        -3.5482   -0.2725    3.1362 C.ar      1 <0>        -0.1019
     12 C11        -3.6104    0.4129    4.3387 C.ar      1 <0>         0.0808
     13 C12        -2.4478    0.9591    4.8899 C.ar      1 <0>        -0.0431
     14 C13        -1.2315    0.8063    4.2286 C.ar      1 <0>        -0.1228
     15 C14        -2.5083    1.6939    6.1770 C.ar      1 <0>        -0.0299
     16 C15        -1.6159    1.3837    7.2019 C.ar      1 <0>        -0.1010
     17 C16        -1.6761    2.0701    8.3976 C.ar      1 <0>        -0.1092
     18 C17        -2.6201    3.0644    8.5808 C.ar      1 <0>        -0.1092
     19 C18        -3.5090    3.3771    7.5668 C.ar      1 <0>        -0.0367
     20 C19        -3.4534    2.7004    6.3637 C.ar      1 <0>        -0.0777
     21 Cl1        -4.6911    4.6260    7.8050 Cl        1 <0>        -0.0701
     22 O2         -4.7999    0.5543    4.9811 O.3       1 <0>        -0.4902
     23 C20         0.4070   -2.8133    2.4813 C.3       1 <0>        -0.1089
     24 N1          0.0278   -2.7697   -2.4187 N.am      1 <0>        -0.6652
     25 C21         0.5074   -2.1784   -3.5308 C.2       1 <0>         0.4524
     26 O3          1.0193   -1.0802   -3.4616 O.2       1 <0>        -0.5209
     27 C22         0.4089   -2.8755   -4.8501 C.2       1 <0>         0.4996
     28 O4          0.8432   -2.3401   -5.8571 O.co2     1 <0>        -0.6362
     29 O5         -0.1058   -3.9799   -4.9197 O.co2     1 <0>        -0.6650
     30 H1          0.5564    1.9843   -0.0615 H         1 <0>         0.0763
     31 H2         -1.0355    1.7602   -0.8257 H         1 <0>         0.0698
     32 H3         -0.8928    1.7653    0.9485 H         1 <0>         0.0645
     33 H4         -0.3286   -0.1673   -2.1219 H         1 <0>         0.1424
     34 H5          0.3643   -3.8275   -0.0197 H         1 <0>         0.1327
     35 H6         -2.2961   -0.9516    1.5448 H         1 <0>         0.1365
     36 H7         -4.4460   -0.6945    2.7093 H         1 <0>         0.1343
     37 H8         -0.3294    1.2225    4.6522 H         1 <0>         0.1373
     38 H9         -0.8788    0.6071    7.0607 H         1 <0>         0.1317
     39 H10        -0.9850    1.8302    9.1921 H         1 <0>         0.1340
     40 H11        -2.6640    3.5985    9.5185 H         1 <0>         0.1326
     41 H12        -4.1440    2.9480    5.5711 H         1 <0>         0.1388
     42 H13        -4.9976   -0.1583    5.6040 H         1 <0>         0.3853
     43 H14         1.4709   -2.8444    2.7166 H         1 <0>         0.0743
     44 H15        -0.1274   -2.3018    3.2819 H         1 <0>         0.0646
     45 H16         0.0269   -3.8301    2.3826 H         1 <0>         0.0685
     46 H17        -0.3115   -3.6775   -2.4600 H         1 <0>         0.4191
@<TRIPOS>BOND
     1    1    2 1
     2    1   30 1
     3    1   31 1
     4    1   32 1
     5    2    7 ar
     6    2    3 ar
     7    3    4 ar
     8    3   33 1
     9    4    5 ar
    10    4   24 1
    11    5    6 ar
    12    5   34 1
    13    6    7 ar
    14    6   23 1
    15    7    8 1
    16    8    9 1
    17    9   14 ar
    18    9   10 ar
    19   10   11 ar
    20   10   35 1
    21   11   12 ar
    22   11   36 1
    23   12   13 ar
    24   12   22 1
    25   13   14 ar
    26   13   15 1
    27   14   37 1
    28   15   20 ar
    29   15   16 ar
    30   16   17 ar
    31   16   38 1
    32   17   18 ar
    33   17   39 1
    34   18   19 ar
    35   18   40 1
    36   19   20 ar
    37   19   21 1
    38   20   41 1
    39   22   42 1
    40   23   43 1
    41   23   44 1
    42   23   45 1
    43   24   25 am
    44   24   46 1
    45   25   26 2
    46   25   27 1
    47   27   28 2
    48   27   29 1
@<TRIPOS>MOLECULE
CHEMBL126693
   48    51     0     0     0
SMALL
USER_CHARGES

@<TRIPOS>ATOM
      1 C1          4.0182   -0.6685   -3.4011 C.ar      1 <0>        -0.1244
      2 C2          2.8584   -0.1523   -2.8527 C.ar      1 <0>        -0.1029
      3 C3          2.6531   -0.2093   -1.4881 C.ar      1 <0>        -0.1307
      4 C4          3.6132   -0.7860   -0.6664 C.ar      1 <0>         0.1362
      5 C5          4.7770   -1.3036   -1.2207 C.ar      1 <0>        -0.1466
      6 C6          4.9760   -1.2433   -2.5860 C.ar      1 <0>        -0.0950
      7 N1          3.4090   -0.8450    0.7141 N.pl3     1 <0>        -1.0573
      8 S1          3.6897   -2.2566    1.5331 S.o2      1 <0>         2.6940
      9 O1          5.0001   -2.6775    1.1797 O.2       1 <0>        -0.9431
     10 O2          3.3002   -2.0287    2.8805 O.2       1 <0>        -0.9295
     11 C7          2.5813   -3.4637    0.8858 C.ar      1 <0>        -0.6691
     12 C8          3.0746   -4.5590    0.2036 C.ar      1 <0>        -0.0198
     13 C9          2.2020   -5.5092   -0.3059 C.ar      1 <0>         0.0977
     14 C10         0.8338   -5.3595   -0.1304 C.ar      1 <0>        -0.1182
     15 C11         0.3409   -4.2645    0.5516 C.ar      1 <0>        -0.1175
     16 C12         1.2141   -3.3171    1.0661 C.ar      1 <0>         0.1815
     17 O3          0.7290   -2.2418    1.7424 O.3       1 <0>        -0.4828
     18 O4          2.6873   -6.5870   -0.9777 O.3       1 <0>        -0.2322
     19 C13         1.7957   -7.4931   -1.4598 C.ar      1 <0>         0.1028
     20 C14         1.4018   -8.5663   -0.6717 C.ar      1 <0>        -0.0254
     21 C15         0.4955   -9.4870   -1.1612 C.ar      1 <0>        -0.0784
     22 C16        -0.0217   -9.3390   -2.4418 C.ar      1 <0>         0.1878
     23 C17         0.3725   -8.2653   -3.2300 C.ar      1 <0>        -0.0734
     24 C18         1.2749   -7.3420   -2.7380 C.ar      1 <0>        -0.0225
     25 Cl1         1.7626   -5.9965   -3.7205 Cl        1 <0>        -0.0154
     26 N2         -0.9401  -10.2723   -2.9384 N.am      1 <0>        -0.4050
     27 C19        -0.7421  -10.8171   -4.1520 C.2       1 <0>         0.6843
     28 O5          0.2320  -10.4917   -4.8027 O.2       1 <0>        -0.5099
     29 N3         -1.6061  -11.7177   -4.6569 N.am      1 <0>        -0.6531
     30 H1         -1.4487  -12.1015   -5.5337 H         1 <0>         0.4403
     31 C20        -2.6903  -12.0869   -3.9440 C.2       1 <0>         0.5164
     32 O6         -3.4754  -12.9012   -4.3938 O.2       1 <0>        -0.4653
     33 C21        -2.9108  -11.4961   -2.6217 C.2       1 <0>         0.0701
     34 N4         -2.0491  -10.6303   -2.1627 N.2       1 <0>        -0.1687
     35 Cl2         2.0486   -8.7515    0.9286 Cl        1 <0>        -0.0151
     36 H2          4.1742   -0.6266   -4.4690 H         1 <0>         0.1259
     37 H3          2.1125    0.2963   -3.4921 H         1 <0>         0.1276
     38 H4          1.7473    0.1944   -1.0604 H         1 <0>         0.1276
     39 H5          5.5257   -1.7524   -0.5846 H         1 <0>         0.1553
     40 H6          5.8806   -1.6455   -3.0175 H         1 <0>         0.1312
     41 H7          3.1028   -0.0590    1.1930 H         1 <0>         0.4287
     42 H8          4.1395   -4.6752    0.0668 H         1 <0>         0.1613
     43 H9          0.1542   -6.0991   -0.5274 H         1 <0>         0.1376
     44 H10        -0.7240   -4.1479    0.6882 H         1 <0>         0.1472
     45 H11         0.6056   -1.4550    1.1938 H         1 <0>         0.3953
     46 H12         0.1894  -10.3219   -0.5483 H         1 <0>         0.1603
     47 H13        -0.0292   -8.1502   -4.2258 H         1 <0>         0.1575
     48 H14        -3.7718  -11.7766   -2.0332 H         1 <0>         0.2342
@<TRIPOS>BOND
     1    1    6 ar
     2    1    2 ar
     3    1   36 1
     4    2    3 ar
     5    2   37 1
     6    3    4 ar
     7    3   38 1
     8    4    5 ar
     9    4    7 1
    10    5    6 ar
    11    5   39 1
    12    6   40 1
    13    7    8 1
    14    7   41 1
    15    8    9 2
    16    8   10 2
    17    8   11 1
    18   11   16 ar
    19   11   12 ar
    20   12   13 ar
    21   12   42 1
    22   13   14 ar
    23   13   18 1
    24   14   15 ar
    25   14   43 1
    26   15   16 ar
    27   15   44 1
    28   16   17 1
    29   17   45 1
    30   18   19 1
    31   19   24 ar
    32   19   20 ar
    33   20   21 ar
    34   20   35 1
    35   21   22 ar
    36   21   46 1
    37   22   23 ar
    38   22   26 1
    39   23   24 ar
    40   23   47 1
    41   24   25 1
    42   26   34 1
    43   26   27 am
    44   27   28 2
    45   27   29 am
    46   29   30 1
    47   29   31 am
    48   31   32 2
    49   31   33 1
    50   33   34 2
    51   33   48 1
@<TRIPOS>MOLECULE
CHEMBL126693__1
   47    50     0     0     0
SMALL
USER_CHARGES

@<TRIPOS>ATOM
      1 C1          4.0108   -0.6651   -3.3937 C.ar      1 <0>        -0.1245
      2 C2          2.8516   -0.1503   -2.8427 C.ar      1 <0>        -0.1028
      3 C3          2.6486   -0.2093   -1.4779 C.ar      1 <0>        -0.1308
      4 C4          3.6103   -0.7867   -0.6586 C.ar      1 <0>         0.1372
      5 C5          4.7736   -1.3029   -1.2154 C.ar      1 <0>        -0.1464
      6 C6          4.9703   -1.2405   -2.5810 C.ar      1 <0>        -0.0949
      7 N1          3.4084   -0.8476    0.7222 N.pl3     1 <0>        -1.0579
      8 S1          3.6912   -2.2602    1.5388 S.o2      1 <0>         2.6955
      9 O1          5.0013   -2.6799    1.1827 O.2       1 <0>        -0.9455
     10 O2          3.3037   -2.0345    2.8871 O.2       1 <0>        -0.9330
     11 C7          2.5825   -3.4671    0.8915 C.ar      1 <0>        -0.6697
     12 C8          3.0753   -4.5608    0.2065 C.ar      1 <0>        -0.0260
     13 C9          2.2024   -5.5108   -0.3031 C.ar      1 <0>         0.1053
     14 C10         0.8345   -5.3625   -0.1246 C.ar      1 <0>        -0.1165
     15 C11         0.3421   -4.2691    0.5603 C.ar      1 <0>        -0.1165
     16 C12         1.2155   -3.3219    1.0747 C.ar      1 <0>         0.1730
     17 O3          0.7309   -2.2484    1.7543 O.3       1 <0>        -0.4840
     18 O4          2.6873   -6.5870   -0.9777 O.3       1 <0>        -0.2304
     19 C13         1.7956   -7.4929   -1.4596 C.ar      1 <0>         0.0775
     20 C14         1.4040   -8.5679   -0.6726 C.ar      1 <0>        -0.0224
     21 C15         0.4976   -9.4883   -1.1618 C.ar      1 <0>        -0.0903
     22 C16        -0.0223   -9.3384   -2.4413 C.ar      1 <0>         0.2033
     23 C17         0.3696   -8.2629   -3.2284 C.ar      1 <0>        -0.0726
     24 C18         1.2720   -7.3399   -2.7367 C.ar      1 <0>        -0.0195
     25 Cl1         1.7568   -5.9922   -3.7177 Cl        1 <0>        -0.0315
     26 N2         -0.9404  -10.2711   -2.9375 N.am      1 <0>        -0.3724
     27 C19        -0.7379  -10.8130   -4.1520 C.2       1 <0>         0.6176
     28 O5          0.2395  -10.4872   -4.8053 O.2       1 <0>        -0.5685
     29 N3         -1.5996  -11.7058   -4.6476 N.2       1 <0>        -0.6228
     30 C20        -2.6578  -12.0509   -3.9268 C.2       1 <0>         0.4331
     31 O6         -3.5485  -12.9516   -4.3986 O.3       1 <0>        -0.6435
     32 C21        -2.8361  -11.4600   -2.6568 C.2       1 <0>         0.0092
     33 N4         -1.9580  -10.5966   -2.2204 N.2       1 <0>        -0.2234
     34 Cl2         2.0542   -8.7554    0.9261 Cl        1 <0>        -0.0332
     35 H1          4.1651   -0.6217   -4.4618 H         1 <0>         0.1256
     36 H2          2.1045    0.2987   -3.4803 H         1 <0>         0.1272
     37 H3          1.7433    0.1932   -1.0482 H         1 <0>         0.1272
     38 H4          5.5234   -1.7521   -0.5812 H         1 <0>         0.1550
     39 H5          5.8744   -1.6416   -3.0145 H         1 <0>         0.1308
     40 H6          3.1025   -0.0625    1.2027 H         1 <0>         0.4272
     41 H7          4.1401   -4.6759    0.0673 H         1 <0>         0.1591
     42 H8          0.1547   -6.1019   -0.5216 H         1 <0>         0.1409
     43 H9         -0.7227   -4.1534    0.6989 H         1 <0>         0.1456
     44 H10         0.6059   -1.4606    1.2076 H         1 <0>         0.3918
     45 H11         0.1934  -10.3245   -0.5498 H         1 <0>         0.1555
     46 H12        -0.0342   -8.1463   -4.2233 H         1 <0>         0.1571
     47 H13        -3.6893  -11.7231   -2.0491 H         1 <0>         0.1841
@<TRIPOS>BOND
     1    1    6 ar
     2    1    2 ar
     3    1   35 1
     4    2    3 ar
     5    2   36 1
     6    3    4 ar
     7    3   37 1
     8    4    5 ar
     9    4    7 1
    10    5    6 ar
    11    5   38 1
    12    6   39 1
    13    7    8 1
    14    7   40 1
    15    8    9 2
    16    8   10 2
    17    8   11 1
    18   11   16 ar
    19   11   12 ar
    20   12   13 ar
    21   12   41 1
    22   13   14 ar
    23   13   18 1
    24   14   15 ar
    25   14   42 1
    26   15   16 ar
    27   15   43 1
    28   16   17 1
    29   17   44 1
    30   18   19 1
    31   19   24 ar
    32   19   20 ar
    33   20   21 ar
    34   20   34 1
    35   21   22 ar
    36   21   45 1
    37   22   23 ar
    38   22   26 1
    39   23   24 ar
    40   23   46 1
    41   24   25 1
    42   26   33 1
    43   26   27 am
    44   27   28 2
    45   27   29 1
    46   29   30 2
    47   30   31 1
    48   30   32 1
    49   32   33 2
    50   32   47 1
@<TRIPOS>MOLECULE
CHEMBL126693__2
   47    50     0     0     0
SMALL
USER_CHARGES

@<TRIPOS>ATOM
      1 C1          3.3387   -0.3476   -2.8165 C.ar      1 <0>        -0.1413
      2 C2          2.2394    0.0215   -2.0631 C.ar      1 <0>        -0.1063
      3 C3          2.2268   -0.2040   -0.7007 C.ar      1 <0>        -0.1302
      4 C4          3.3201   -0.8023   -0.0872 C.ar      1 <0>         0.1691
      5 C5          4.4227   -1.1719   -0.8469 C.ar      1 <0>        -0.1528
      6 C6          4.4287   -0.9435   -2.2089 C.ar      1 <0>        -0.0999
      7 N1          3.3109   -1.0315    1.2906 N.pl3     1 <0>        -1.0547
      8 S1          3.7747   -2.5046    1.8882 S.o2      1 <0>         2.7106
      9 O1          5.0473   -2.7894    1.3238 O.2       1 <0>        -0.9884
     10 O2          3.5562   -2.4607    3.2916 O.2       1 <0>        -0.9570
     11 C7          2.6574   -3.7041    1.2419 C.ar      1 <0>        -0.7920
     12 C8          3.1159   -4.6812    0.3798 C.ar      1 <0>         0.0192
     13 C9          2.2363   -5.6255   -0.1289 C.ar      1 <0>        -0.0369
     14 C10         0.8961   -5.5884    0.2283 C.ar      1 <0>        -0.0875
     15 C11         0.4380   -4.6115    1.0902 C.ar      1 <0>        -0.2184
     16 C12         1.3189   -3.6706    1.6033 C.ar      1 <0>         0.3346
     17 O3          0.8688   -2.7121    2.4564 O.3       1 <0>        -0.6890
     18 O4          2.6873   -6.5869   -0.9778 O.3       1 <0>        -0.2503
     19 C13         1.7901   -7.4917   -1.4519 C.ar      1 <0>         0.1432
     20 C14         1.5579   -8.6698   -0.7547 C.ar      1 <0>        -0.0345
     21 C15         0.6460   -9.5892   -1.2360 C.ar      1 <0>        -0.0787
     22 C16        -0.0386   -9.3350   -2.4175 C.ar      1 <0>         0.1605
     23 C17         0.1938   -8.1564   -3.1148 C.ar      1 <0>        -0.0730
     24 C18         1.1020   -7.2350   -2.6302 C.ar      1 <0>        -0.0314
     25 Cl1         1.3878   -5.7589   -3.4982 Cl        1 <0>        -0.0200
     26 N2         -0.9628  -10.2670   -2.9058 N.am      1 <0>        -0.3958
     27 C19        -0.8910  -10.6629   -4.1891 C.2       1 <0>         0.6818
     28 O5         -0.0244  -10.2058   -4.9092 O.2       1 <0>        -0.5103
     29 N3         -1.7640  -11.5579   -4.6884 N.am      1 <0>        -0.6538
     30 H1         -1.6984  -11.8333   -5.6162 H         1 <0>         0.4374
     31 C20        -2.7295  -12.0724   -3.8991 C.2       1 <0>         0.5194
     32 O6         -3.5219  -12.8827   -4.3433 O.2       1 <0>        -0.4764
     33 C21        -2.8124  -11.6441   -2.5005 C.2       1 <0>         0.0552
     34 N4         -1.9456  -10.7788   -2.0502 N.2       1 <0>        -0.1603
     35 Cl2         2.4141   -8.9877    0.7217 Cl        1 <0>        -0.0213
     36 H2          3.3441   -0.1743   -3.8825 H         1 <0>         0.1173
     37 H3          1.3899    0.4870   -2.5407 H         1 <0>         0.1201
     38 H4          1.3681    0.0849   -0.1128 H         1 <0>         0.1266
     39 H5          5.2744   -1.6370   -0.3730 H         1 <0>         0.1528
     40 H6          5.2856   -1.2306   -2.8002 H         1 <0>         0.1232
     41 H7          3.0328   -0.3277    1.8975 H         1 <0>         0.4215
     42 H8          4.1590   -4.7097    0.1016 H         1 <0>         0.1249
     43 H9          0.2110   -6.3234   -0.1680 H         1 <0>         0.1003
     44 H10        -0.6052   -4.5826    1.3682 H         1 <0>         0.1098
     45 H11         0.4657  -10.5057   -0.6938 H         1 <0>         0.1522
     46 H12        -0.3381   -7.9587   -4.0336 H         1 <0>         0.1496
     47 H13        -3.5770  -12.0426   -1.8501 H         1 <0>         0.2309
@<TRIPOS>BOND
     1    1    6 ar
     2    1    2 ar
     3    1   36 1
     4    2    3 ar
     5    2   37 1
     6    3    4 ar
     7    3   38 1
     8    4    5 ar
     9    4    7 1
    10    5    6 ar
    11    5   39 1
    12    6   40 1
    13    7    8 1
    14    7   41 1
    15    8    9 2
    16    8   10 2
    17    8   11 1
    18   11   16 ar
    19   11   12 ar
    20   12   13 ar
    21   12   42 1
    22   13   14 ar
    23   13   18 1
    24   14   15 ar
    25   14   43 1
    26   15   16 ar
    27   15   44 1
    28   16   17 1
    29   18   19 1
    30   19   24 ar
    31   19   20 ar
    32   20   21 ar
    33   20   35 1
    34   21   22 ar
    35   21   45 1
    36   22   23 ar
    37   22   26 1
    38   23   24 ar
    39   23   46 1
    40   24   25 1
    41   26   34 1
    42   26   27 am
    43   27   28 2
    44   27   29 am
    45   29   30 1
    46   29   31 am
    47   31   32 2
    48   31   33 1
    49   33   34 2
    50   33   47 1
@<TRIPOS>MOLECULE
CHEMBL110335
   52    53     0     0     0
SMALL
USER_CHARGES

@<TRIPOS>ATOM
      1 C1         -0.1185    1.2977   -0.1464 C.3       1 <0>        -0.1263
      2 C2         -0.0160   -0.2008   -0.0247 C.ar      1 <0>        -0.0643
      3 C3         -0.0930   -0.9929   -1.1550 C.ar      1 <0>        -0.1472
      4 C4          0.0010   -2.3675   -1.0434 C.ar      1 <0>        -0.1024
      5 C5          0.1724   -2.9501    0.1985 C.ar      1 <0>        -0.1106
      6 C6          0.2503   -2.1579    1.3286 C.ar      1 <0>        -0.0617
      7 C7          0.1606   -0.7830    1.2166 C.ar      1 <0>        -0.0726
      8 C8          0.2507    0.0808    2.4481 C.3       1 <0>        -0.0504
      9 C9          1.6896    0.4542    2.6956 C.ar      1 <0>        -0.0788
     10 C10         2.4848   -0.3512    3.4901 C.ar      1 <0>        -0.1060
     11 C11         3.8038   -0.0109    3.7189 C.ar      1 <0>        -0.1388
     12 C12         4.3308    1.1398    3.1504 C.ar      1 <0>         0.1027
     13 C13         3.5312    1.9458    2.3534 C.ar      1 <0>        -0.0965
     14 C14         2.2138    1.5983    2.1234 C.ar      1 <0>        -0.0993
     15 C15         4.1003    3.1963    1.7344 C.3       1 <0>        -0.0582
     16 C16         3.9989    3.1029    0.2106 C.3       1 <0>        -0.1433
     17 C17         3.3117    4.4124    2.2244 C.3       1 <0>        -0.1433
     18 O1          5.6281    1.4770    3.3743 O.3       1 <0>        -0.4953
     19 C18         0.4366   -2.7930    2.6825 C.3       1 <0>        -0.1268
     20 C19        -0.0839   -3.2311   -2.2755 C.3       1 <0>        -0.0834
     21 C20         1.3186   -3.4384   -2.8507 C.3       1 <0>        -0.0426
     22 H1          1.9714   -3.8456   -2.0786 H         1 <0>         0.1326
     23 C21         1.2496   -4.4001   -4.0088 C.2       1 <0>         0.4909
     24 O2          1.4357   -4.0000   -5.1454 O.co2     1 <0>        -0.6719
     25 O3          1.0076   -5.5783   -3.8092 O.co2     1 <0>        -0.6339
     26 N1          1.8528   -2.1509   -3.3145 N.4       1 <0>        -0.6137
     27 H2          0.8813    1.7253   -0.2229 H         1 <0>         0.0748
     28 H3         -0.6914    1.5515   -1.0383 H         1 <0>         0.0687
     29 H4         -0.6194    1.7004    0.7340 H         1 <0>         0.0742
     30 H5         -0.2269   -0.5378   -2.1252 H         1 <0>         0.1204
     31 H6          0.2451   -4.0241    0.2857 H         1 <0>         0.1292
     32 H7         -0.3393    0.9855    2.3012 H         1 <0>         0.0867
     33 H8         -0.1349   -0.4690    3.3066 H         1 <0>         0.0878
     34 H9          2.0741   -1.2468    3.9324 H         1 <0>         0.1273
     35 H10         4.4242   -0.6399    4.3400 H         1 <0>         0.1286
     36 H11         1.5920    2.2233    1.4997 H         1 <0>         0.1268
     37 H12         5.1462    3.3011    2.0231 H         1 <0>         0.0853
     38 H13         2.9530    2.9981   -0.0781 H         1 <0>         0.0545
     39 H14         4.4105    4.0074   -0.2371 H         1 <0>         0.0606
     40 H15         4.5607    2.2365   -0.1385 H         1 <0>         0.0523
     41 H16         3.7234    5.3169    1.7767 H         1 <0>         0.0599
     42 H17         2.2659    4.3076    1.9357 H         1 <0>         0.0551
     43 H18         3.3840    4.4790    3.3100 H         1 <0>         0.0571
     44 H19         6.2468    1.1115    2.7272 H         1 <0>         0.3885
     45 H20         1.4963   -2.8006    2.9376 H         1 <0>         0.0764
     46 H21        -0.1130   -2.2217    3.4306 H         1 <0>         0.0736
     47 H22         0.0612   -3.8161    2.6587 H         1 <0>         0.0708
     48 H23        -0.5154   -4.1971   -2.0131 H         1 <0>         0.1182
     49 H24        -0.7130   -2.7421   -3.0193 H         1 <0>         0.0903
     50 H25         1.8991   -1.5070   -2.5391 H         1 <0>         0.4119
     51 H26         2.7778   -2.2876   -3.6938 H         1 <0>         0.4316
     52 H27         1.2485   -1.7739   -4.0292 H         1 <0>         0.4302
@<TRIPOS>BOND
     1    1    2 1
     2    1   27 1
     3    1   28 1
     4    1   29 1
     5    2    7 ar
     6    2    3 ar
     7    3    4 ar
     8    3   30 1
     9    4    5 ar
    10    4   20 1
    11    5    6 ar
    12    5   31 1
    13    6    7 ar
    14    6   19 1
    15    7    8 1
    16    8    9 1
    17    8   32 1
    18    8   33 1
    19    9   14 ar
    20    9   10 ar
    21   10   11 ar
    22   10   34 1
    23   11   12 ar
    24   11   35 1
    25   12   13 ar
    26   12   18 1
    27   13   14 ar
    28   13   15 1
    29   14   36 1
    30   15   16 1
    31   15   17 1
    32   15   37 1
    33   16   38 1
    34   16   39 1
    35   16   40 1
    36   17   41 1
    37   17   42 1
    38   17   43 1
    39   18   44 1
    40   19   45 1
    41   19   46 1
    42   19   47 1
    43   20   21 1
    44   20   48 1
    45   20   49 1
    46   21   22 1
    47   21   23 1
    48   21   26 1
    49   23   24 2
    50   23   25 1
    51   26   50 1
    52   26   51 1
    53   26   52 1
@<TRIPOS>MOLECULE
CHEMBL564112
   54    55     0     0     0
SMALL
USER_CHARGES

@<TRIPOS>ATOM
      1 C1         -0.0187    1.5258    0.0104 C.3       1 <0>        -0.1551
      2 C2          0.0021   -0.0041    0.0020 C.3       1 <0>        -0.1256
      3 C3          0.7421   -0.5109    1.2415 C.3       1 <0>        -0.1259
      4 C4          0.7628   -2.0407    1.2331 C.3       1 <0>        -0.1121
      5 C5          1.5028   -2.5476    2.4727 C.3       1 <0>        -0.1167
      6 C6          1.5236   -4.0774    2.4642 C.3       1 <0>        -0.6023
      7 S1          2.4009   -4.6783    3.9339 S.o2      1 <0>         2.4894
      8 O1          3.7800   -4.3458    3.8507 O.2       1 <0>        -0.9265
      9 O2          1.6536   -4.3816    5.1055 O.2       1 <0>        -0.9258
     10 C7          2.3532   -6.4348    3.8030 C.ar      1 <0>        -0.6250
     11 C8          1.2970   -7.1380    4.3575 C.ar      1 <0>        -0.0335
     12 C9          1.2514   -8.5120    4.2600 C.ar      1 <0>        -0.0804
     13 C10         2.2759   -9.1973    3.5981 C.ar      1 <0>        -0.1102
     14 C11         3.3402   -8.4798    3.0396 C.ar      1 <0>        -0.0110
     15 C12         3.3680   -7.1029    3.1422 C.ar      1 <0>        -0.0279
     16 Cl1         4.6183   -9.3176    2.2160 Cl        1 <0>        -0.0194
     17 C13         2.2352  -10.6635    3.4900 C.2       1 <0>         0.3870
     18 O3          3.1249  -11.2541    2.9155 O.2       1 <0>        -0.4156
     19 C14         1.0877  -11.4319    4.0932 C.3       1 <0>        -0.1650
     20 C15         1.2873  -12.9278    3.8416 C.3       1 <0>         0.0624
     21 N1          0.1687  -13.6768    4.4295 N.3       1 <0>        -0.5323
     22 C16         0.4280  -15.1253    4.3954 C.3       1 <0>         0.0325
     23 C17        -0.6006  -15.8295    5.2823 C.3       1 <0>         0.1144
     24 N2         -1.9474  -15.3824    4.9384 N.am      1 <0>        -0.7191
     25 C18        -2.1876  -14.2601    4.2523 C.2       1 <0>         0.5249
     26 O4         -3.3391  -13.9465    4.0361 O.2       1 <0>        -0.5502
     27 C19        -1.0908  -13.3711    3.7381 C.3       1 <0>         0.0325
     28 H1          1.0039    1.9031    0.0027 H         1 <0>         0.0543
     29 H2         -0.5459    1.8868   -0.8726 H         1 <0>         0.0542
     30 H3         -0.5289    1.8773    0.9072 H         1 <0>         0.0544
     31 H4         -1.0205   -0.3814    0.0098 H         1 <0>         0.0615
     32 H5          0.5123   -0.3556   -0.8948 H         1 <0>         0.0614
     33 H6          1.7647   -0.1336    1.2338 H         1 <0>         0.0655
     34 H7          0.2319   -0.1594    2.1383 H         1 <0>         0.0656
     35 H8         -0.2598   -2.4180    1.2409 H         1 <0>         0.0684
     36 H9          1.2730   -2.3923    0.3363 H         1 <0>         0.0683
     37 H10         2.5254   -2.1703    2.4649 H         1 <0>         0.0831
     38 H11         0.9926   -2.1961    3.3695 H         1 <0>         0.0833
     39 H12         0.5010   -4.4547    2.4720 H         1 <0>         0.1392
     40 H13         2.0337   -4.4289    1.5675 H         1 <0>         0.1386
     41 H14         0.5067   -6.6081    4.8683 H         1 <0>         0.1572
     42 H15         0.4270   -9.0584    4.6939 H         1 <0>         0.1544
     43 H16         4.1859   -6.5467    2.7086 H         1 <0>         0.1591
     44 H17         1.0501  -11.2458    5.1665 H         1 <0>         0.1156
     45 H18         0.1530  -11.1080    3.6354 H         1 <0>         0.1038
     46 H19         1.3249  -13.1138    2.7682 H         1 <0>         0.0499
     47 H20         2.2220  -13.2517    4.2994 H         1 <0>         0.0915
     48 H21         0.3379  -15.4887    3.3718 H         1 <0>         0.0500
     49 H22         1.4318  -15.3259    4.7699 H         1 <0>         0.1010
     50 H23        -0.5285  -16.9069    5.1342 H         1 <0>         0.0842
     51 H24        -0.3977  -15.5954    6.3273 H         1 <0>         0.0776
     52 H25        -2.7014  -15.9238    5.2200 H         1 <0>         0.4031
     53 H26        -1.3569  -12.3290    3.9148 H         1 <0>         0.1158
     54 H27        -0.9648  -13.5343    2.6677 H         1 <0>         0.0755
@<TRIPOS>BOND
     1    1    2 1
     2    1   28 1
     3    1   29 1
     4    1   30 1
     5    2    3 1
     6    2   31 1
     7    2   32 1
     8    3    4 1
     9    3   33 1
    10    3   34 1
    11    4    5 1
    12    4   35 1
    13    4   36 1
    14    5    6 1
    15    5   37 1
    16    5   38 1
    17    6    7 1
    18    6   39 1
    19    6   40 1
    20    7    8 2
    21    7    9 2
    22    7   10 1
    23   10   15 ar
    24   10   11 ar
    25   11   12 ar
    26   11   41 1
    27   12   13 ar
    28   12   42 1
    29   13   14 ar
    30   13   17 1
    31   14   15 ar
    32   14   16 1
    33   15   43 1
    34   17   18 2
    35   17   19 1
    36   19   20 1
    37   19   44 1
    38   19   45 1
    39   20   21 1
    40   20   46 1
    41   20   47 1
    42   21   27 1
    43   21   22 1
    44   22   23 1
    45   22   48 1
    46   22   49 1
    47   23   24 1
    48   23   50 1
    49   23   51 1
    50   24   25 am
    51   24   52 1
    52   25   26 2
    53   25   27 1
    54   27   53 1
    55   27   54 1
@<TRIPOS>MOLECULE
CHEMBL564112__1
   55    56     0     0     0
SMALL
USER_CHARGES

@<TRIPOS>ATOM
      1 C1         -0.0187    1.5258    0.0104 C.3       1 <0>        -0.1561
      2 C2          0.0021   -0.0041    0.0020 C.3       1 <0>        -0.1251
      3 C3          0.7421   -0.5109    1.2415 C.3       1 <0>        -0.1266
      4 C4          0.7628   -2.0407    1.2331 C.3       1 <0>        -0.1113
      5 C5          1.5028   -2.5476    2.4727 C.3       1 <0>        -0.1181
      6 C6          1.5236   -4.0774    2.4642 C.3       1 <0>        -0.5983
      7 S1          2.4009   -4.6783    3.9339 S.o2      1 <0>         2.4836
      8 O1          3.7800   -4.3458    3.8507 O.2       1 <0>        -0.9203
      9 O2          1.6536   -4.3816    5.1055 O.2       1 <0>        -0.9216
     10 C7          2.3532   -6.4348    3.8030 C.ar      1 <0>        -0.6137
     11 C8          1.2970   -7.1380    4.3575 C.ar      1 <0>        -0.0324
     12 C9          1.2514   -8.5120    4.2600 C.ar      1 <0>        -0.0832
     13 C10         2.2759   -9.1973    3.5981 C.ar      1 <0>        -0.1255
     14 C11         3.3402   -8.4798    3.0396 C.ar      1 <0>        -0.0044
     15 C12         3.3680   -7.1029    3.1422 C.ar      1 <0>        -0.0240
     16 Cl1         4.6183   -9.3176    2.2160 Cl        1 <0>        -0.0117
     17 C13         2.2352  -10.6635    3.4900 C.2       1 <0>         0.3995
     18 O3          3.1249  -11.2541    2.9155 O.2       1 <0>        -0.4065
     19 C14         1.0877  -11.4319    4.0932 C.3       1 <0>        -0.2018
     20 C15         1.2873  -12.9278    3.8416 C.3       1 <0>        -0.0019
     21 N1          0.1687  -13.6768    4.4295 N.4       1 <0>        -0.3866
     22 C16         0.4107  -15.1204    4.2818 C.3       1 <0>        -0.0219
     23 C17        -0.6241  -15.8814    5.1129 C.3       1 <0>         0.0826
     24 N2         -1.9669  -15.4014    4.7956 N.am      1 <0>        -0.7228
     25 C18        -2.1885  -14.2352    4.1785 C.2       1 <0>         0.5043
     26 O4         -3.3341  -13.8952    3.9711 O.2       1 <0>        -0.4870
     27 C19        -1.0759  -13.3295    3.7325 C.3       1 <0>        -0.0235
     28 H1          1.0039    1.9031    0.0027 H         1 <0>         0.0550
     29 H2         -0.5459    1.8868   -0.8726 H         1 <0>         0.0554
     30 H3         -0.5289    1.8773    0.9072 H         1 <0>         0.0548
     31 H4         -1.0205   -0.3814    0.0098 H         1 <0>         0.0612
     32 H5          0.5123   -0.3556   -0.8948 H         1 <0>         0.0615
     33 H6          1.7647   -0.1336    1.2338 H         1 <0>         0.0664
     34 H7          0.2319   -0.1594    2.1383 H         1 <0>         0.0661
     35 H8         -0.2598   -2.4180    1.2409 H         1 <0>         0.0680
     36 H9          1.2730   -2.3923    0.3363 H         1 <0>         0.0685
     37 H10         2.5254   -2.1703    2.4649 H         1 <0>         0.0849
     38 H11         0.9926   -2.1961    3.3695 H         1 <0>         0.0845
     39 H12         0.5010   -4.4547    2.4720 H         1 <0>         0.1389
     40 H13         2.0337   -4.4289    1.5675 H         1 <0>         0.1393
     41 H14         0.5067   -6.6081    4.8683 H         1 <0>         0.1606
     42 H15         0.4270   -9.0584    4.6939 H         1 <0>         0.1496
     43 H16         4.1859   -6.5467    2.7086 H         1 <0>         0.1645
     44 H17         1.0501  -11.2458    5.1665 H         1 <0>         0.1298
     45 H18         0.1530  -11.1080    3.6354 H         1 <0>         0.1269
     46 H19         1.3249  -13.1138    2.7682 H         1 <0>         0.1444
     47 H20         2.2220  -13.2517    4.2994 H         1 <0>         0.1484
     48 H21         0.3151  -15.4014    3.2330 H         1 <0>         0.1435
     49 H22         1.4128  -15.3611    4.6367 H         1 <0>         0.1577
     50 H23        -0.5575  -16.9458    4.8878 H         1 <0>         0.1306
     51 H24        -0.4243  -15.7235    6.1727 H         1 <0>         0.1017
     52 H25        -2.7279  -15.9502    5.0417 H         1 <0>         0.4282
     53 H26        -1.3395  -12.2960    3.9570 H         1 <0>         0.1667
     54 H27        -0.9306  -13.4380    2.6577 H         1 <0>         0.1663
     55 H28         0.0841  -13.4451    5.4079 H         1 <0>         0.4307
@<TRIPOS>BOND
     1    1    2 1
     2    1   28 1
     3    1   29 1
     4    1   30 1
     5    2    3 1
     6    2   31 1
     7    2   32 1
     8    3    4 1
     9    3   33 1
    10    3   34 1
    11    4    5 1
    12    4   35 1
    13    4   36 1
    14    5    6 1
    15    5   37 1
    16    5   38 1
    17    6    7 1
    18    6   39 1
    19    6   40 1
    20    7    8 2
    21    7    9 2
    22    7   10 1
    23   10   15 ar
    24   10   11 ar
    25   11   12 ar
    26   11   41 1
    27   12   13 ar
    28   12   42 1
    29   13   14 ar
    30   13   17 1
    31   14   15 ar
    32   14   16 1
    33   15   43 1
    34   17   18 2
    35   17   19 1
    36   19   20 1
    37   19   44 1
    38   19   45 1
    39   20   21 1
    40   20   46 1
    41   20   47 1
    42   21   27 1
    43   21   22 1
    44   21   55 1
    45   22   23 1
    46   22   48 1
    47   22   49 1
    48   23   24 1
    49   23   50 1
    50   23   51 1
    51   24   25 am
    52   24   52 1
    53   25   26 2
    54   25   27 1
    55   27   53 1
    56   27   54 1
@<TRIPOS>MOLECULE
CHEMBL550954
   54    55     0     0     0
SMALL
USER_CHARGES

@<TRIPOS>ATOM
      1 C1         -0.0187    1.5258    0.0104 C.3       1 <0>        -0.1550
      2 C2          0.0021   -0.0041    0.0020 C.3       1 <0>        -0.1256
      3 C3          0.7182   -0.4975   -1.2568 C.3       1 <0>        -0.1256
      4 C4          0.7390   -2.0273   -1.2652 C.3       1 <0>        -0.1120
      5 C5          1.4551   -2.5207   -2.5240 C.3       1 <0>        -0.1137
      6 C6          1.4758   -4.0506   -2.5324 C.3       1 <0>        -0.6044
      7 S1          2.3249   -4.6356   -4.0249 S.o2      1 <0>         2.4833
      8 O1          1.5554   -4.3263   -5.1788 O.2       1 <0>        -0.9236
      9 O2          3.7053   -4.3039   -3.9645 O.2       1 <0>        -0.9097
     10 C7          2.2796   -6.3934   -3.9120 C.ar      1 <0>        -0.6228
     11 C8          1.5679   -7.1252   -4.8475 C.ar      1 <0>        -0.0191
     12 C9          1.5264   -8.5004   -4.7670 C.ar      1 <0>        -0.0757
     13 C10         2.2063   -9.1588   -3.7365 C.ar      1 <0>        -0.0993
     14 C11         2.9243   -8.4136   -2.7941 C.ar      1 <0>        -0.0066
     15 C12         2.9601   -7.0353   -2.8921 C.ar      1 <0>         0.0349
     16 Cl1         3.8552   -6.1072   -1.7297 Cl        1 <0>        -0.0124
     17 Cl2         3.7722   -9.2179   -1.5105 Cl        1 <0>         0.0016
     18 C13         2.1662  -10.6261   -3.6437 C.2       1 <0>         0.3872
     19 O3          2.7567  -11.1934   -2.7492 O.2       1 <0>        -0.4113
     20 C14         1.3915  -11.4245   -4.6602 C.3       1 <0>        -0.1612
     21 C15         1.5121  -12.9152   -4.3373 C.3       1 <0>         0.0635
     22 N1          0.7569  -13.6935   -5.3282 N.3       1 <0>        -0.5377
     23 C16        -0.6856  -13.4333   -5.2142 C.3       1 <0>         0.0112
     24 C17        -1.4273  -14.2162   -6.3009 C.3       1 <0>         0.0628
     25 O4         -1.1164  -15.6066   -6.1760 O.3       1 <0>        -0.3848
     26 C18         0.2801  -15.8961   -6.2827 C.3       1 <0>         0.0631
     27 C19         1.0391  -15.1302   -5.1959 C.3       1 <0>         0.0176
     28 H1          1.0039    1.9031    0.0027 H         1 <0>         0.0543
     29 H2         -0.5459    1.8868   -0.8726 H         1 <0>         0.0544
     30 H3         -0.5289    1.8773    0.9072 H         1 <0>         0.0542
     31 H4          0.5293   -0.3651    0.8851 H         1 <0>         0.0615
     32 H5         -1.0205   -0.3814    0.0098 H         1 <0>         0.0616
     33 H6          0.1910   -0.1364   -2.1398 H         1 <0>         0.0659
     34 H7          1.7408   -0.1202   -1.2645 H         1 <0>         0.0657
     35 H8          1.2661   -2.3884   -0.3821 H         1 <0>         0.0686
     36 H9         -0.2836   -2.4046   -1.2575 H         1 <0>         0.0690
     37 H10         0.9279   -2.1597   -3.4071 H         1 <0>         0.0839
     38 H11         2.4777   -2.1435   -2.5317 H         1 <0>         0.0839
     39 H12         2.0030   -4.4117   -1.6494 H         1 <0>         0.1380
     40 H13         0.4533   -4.4279   -2.5247 H         1 <0>         0.1413
     41 H14         1.0433   -6.6166   -5.6428 H         1 <0>         0.1702
     42 H15         0.9699   -9.0687   -5.4976 H         1 <0>         0.1612
     43 H16         0.3424  -11.1301   -4.6305 H         1 <0>         0.1044
     44 H17         1.7942  -11.2345   -5.6551 H         1 <0>         0.1152
     45 H18         2.5611  -13.2096   -4.3670 H         1 <0>         0.0862
     46 H19         1.1093  -13.1052   -3.3425 H         1 <0>         0.0460
     47 H20        -1.0364  -13.7517   -4.2326 H         1 <0>         0.0455
     48 H21        -0.8742  -12.3672   -5.3407 H         1 <0>         0.0876
     49 H22        -2.5014  -14.0716   -6.1847 H         1 <0>         0.0992
     50 H23        -1.1156  -13.8603   -7.2829 H         1 <0>         0.0612
     51 H24         0.4408  -16.9664   -6.1535 H         1 <0>         0.1001
     52 H25         0.6415  -15.5890   -7.2642 H         1 <0>         0.0614
     53 H26         2.1094  -15.3028   -5.3090 H         1 <0>         0.0890
     54 H27         0.7158  -15.4757   -4.2140 H         1 <0>         0.0458
@<TRIPOS>BOND
     1    1    2 1
     2    1   28 1
     3    1   29 1
     4    1   30 1
     5    2    3 1
     6    2   31 1
     7    2   32 1
     8    3    4 1
     9    3   33 1
    10    3   34 1
    11    4    5 1
    12    4   35 1
    13    4   36 1
    14    5    6 1
    15    5   37 1
    16    5   38 1
    17    6    7 1
    18    6   39 1
    19    6   40 1
    20    7    8 2
    21    7    9 2
    22    7   10 1
    23   10   15 ar
    24   10   11 ar
    25   11   12 ar
    26   11   41 1
    27   12   13 ar
    28   12   42 1
    29   13   14 ar
    30   13   18 1
    31   14   15 ar
    32   14   17 1
    33   15   16 1
    34   18   19 2
    35   18   20 1
    36   20   21 1
    37   20   43 1
    38   20   44 1
    39   21   22 1
    40   21   45 1
    41   21   46 1
    42   22   27 1
    43   22   23 1
    44   23   24 1
    45   23   47 1
    46   23   48 1
    47   24   25 1
    48   24   49 1
    49   24   50 1
    50   25   26 1
    51   26   27 1
    52   26   51 1
    53   26   52 1
    54   27   53 1
    55   27   54 1
@<TRIPOS>MOLECULE
CHEMBL550954__1
   55    56     0     0     0
SMALL
USER_CHARGES

@<TRIPOS>ATOM
      1 C1         -0.0187    1.5258    0.0104 C.3       1 <0>        -0.1559
      2 C2          0.0021   -0.0041    0.0020 C.3       1 <0>        -0.1253
      3 C3          0.7182   -0.4975   -1.2568 C.3       1 <0>        -0.1263
      4 C4          0.7390   -2.0273   -1.2652 C.3       1 <0>        -0.1114
      5 C5          1.4551   -2.5207   -2.5240 C.3       1 <0>        -0.1150
      6 C6          1.4758   -4.0506   -2.5324 C.3       1 <0>        -0.6005
      7 S1          2.3249   -4.6356   -4.0249 S.o2      1 <0>         2.4769
      8 O1          1.5554   -4.3263   -5.1788 O.2       1 <0>        -0.9194
      9 O2          3.7053   -4.3039   -3.9645 O.2       1 <0>        -0.9041
     10 C7          2.2796   -6.3934   -3.9120 C.ar      1 <0>        -0.6124
     11 C8          1.5679   -7.1252   -4.8475 C.ar      1 <0>        -0.0177
     12 C9          1.5264   -8.5004   -4.7670 C.ar      1 <0>        -0.0793
     13 C10         2.2063   -9.1588   -3.7365 C.ar      1 <0>        -0.1143
     14 C11         2.9243   -8.4136   -2.7941 C.ar      1 <0>        -0.0017
     15 C12         2.9601   -7.0353   -2.8921 C.ar      1 <0>         0.0361
     16 Cl1         3.8552   -6.1072   -1.7297 Cl        1 <0>         0.0013
     17 Cl2         3.7722   -9.2179   -1.5105 Cl        1 <0>         0.0086
     18 C13         2.1662  -10.6261   -3.6437 C.2       1 <0>         0.3996
     19 O3          2.7567  -11.1934   -2.7492 O.2       1 <0>        -0.4022
     20 C14         1.3915  -11.4245   -4.6602 C.3       1 <0>        -0.1979
     21 C15         1.5121  -12.9152   -4.3373 C.3       1 <0>        -0.0009
     22 N1          0.7569  -13.6935   -5.3282 N.4       1 <0>        -0.3856
     23 C16        -0.6746  -13.3849   -5.2060 C.3       1 <0>        -0.0514
     24 C17        -1.4592  -14.1968   -6.2395 C.3       1 <0>         0.0366
     25 O4         -1.2030  -15.5896   -6.0383 O.3       1 <0>        -0.3555
     26 C18         0.1820  -15.9365   -6.1240 C.3       1 <0>         0.0361
     27 C19         0.9697  -15.1278   -5.0902 C.3       1 <0>        -0.0432
     28 H1          1.0039    1.9031    0.0027 H         1 <0>         0.0550
     29 H2         -0.5459    1.8868   -0.8726 H         1 <0>         0.0548
     30 H3         -0.5289    1.8773    0.9072 H         1 <0>         0.0554
     31 H4          0.5293   -0.3651    0.8851 H         1 <0>         0.0616
     32 H5         -1.0205   -0.3814    0.0098 H         1 <0>         0.0614
     33 H6          0.1910   -0.1364   -2.1398 H         1 <0>         0.0664
     34 H7          1.7408   -0.1202   -1.2645 H         1 <0>         0.0665
     35 H8          1.2661   -2.3884   -0.3821 H         1 <0>         0.0689
     36 H9         -0.2836   -2.4046   -1.2575 H         1 <0>         0.0689
     37 H10         0.9279   -2.1597   -3.4071 H         1 <0>         0.0852
     38 H11         2.4777   -2.1435   -2.5317 H         1 <0>         0.0855
     39 H12         2.0030   -4.4117   -1.6494 H         1 <0>         0.1381
     40 H13         0.4533   -4.4279   -2.5247 H         1 <0>         0.1415
     41 H14         1.0433   -6.6166   -5.6428 H         1 <0>         0.1731
     42 H15         0.9699   -9.0687   -5.4976 H         1 <0>         0.1561
     43 H16         0.3424  -11.1301   -4.6305 H         1 <0>         0.1273
     44 H17         1.7942  -11.2345   -5.6551 H         1 <0>         0.1293
     45 H18         2.5611  -13.2096   -4.3670 H         1 <0>         0.1433
     46 H19         1.1093  -13.1052   -3.3425 H         1 <0>         0.1411
     47 H20        -1.0179  -13.6429   -4.2042 H         1 <0>         0.1417
     48 H21        -0.8335  -12.3211   -5.3825 H         1 <0>         0.1423
     49 H22        -2.5252  -14.0022   -6.1222 H         1 <0>         0.1429
     50 H23        -1.1444  -13.9101   -7.2429 H         1 <0>         0.0824
     51 H24         0.3037  -17.0008   -5.9231 H         1 <0>         0.1437
     52 H25         0.5530  -15.7092   -7.1234 H         1 <0>         0.0824
     53 H26         2.0313  -15.3578   -5.1808 H         1 <0>         0.1450
     54 H27         0.6257  -15.3851   -4.0884 H         1 <0>         0.1411
     55 H28         1.0744  -13.4556   -6.2559 H         1 <0>         0.4238
@<TRIPOS>BOND
     1    1    2 1
     2    1   28 1
     3    1   29 1
     4    1   30 1
     5    2    3 1
     6    2   31 1
     7    2   32 1
     8    3    4 1
     9    3   33 1
    10    3   34 1
    11    4    5 1
    12    4   35 1
    13    4   36 1
    14    5    6 1
    15    5   37 1
    16    5   38 1
    17    6    7 1
    18    6   39 1
    19    6   40 1
    20    7    8 2
    21    7    9 2
    22    7   10 1
    23   10   15 ar
    24   10   11 ar
    25   11   12 ar
    26   11   41 1
    27   12   13 ar
    28   12   42 1
    29   13   14 ar
    30   13   18 1
    31   14   15 ar
    32   14   17 1
    33   15   16 1
    34   18   19 2
    35   18   20 1
    36   20   21 1
    37   20   43 1
    38   20   44 1
    39   21   22 1
    40   21   45 1
    41   21   46 1
    42   22   27 1
    43   22   23 1
    44   22   55 1
    45   23   24 1
    46   23   47 1
    47   23   48 1
    48   24   25 1
    49   24   49 1
    50   24   50 1
    51   25   26 1
    52   26   27 1
    53   26   51 1
    54   26   52 1
    55   27   53 1
    56   27   54 1
@<TRIPOS>MOLECULE
CHEMBL550768
   60    61     0     0     0
SMALL
USER_CHARGES

@<TRIPOS>ATOM
      1 C1         -0.0187    1.5258    0.0104 C.3       1 <0>        -0.1551
      2 C2          0.0021   -0.0041    0.0020 C.3       1 <0>        -0.1255
      3 C3         -1.4333   -0.5336    0.0129 C.3       1 <0>        -0.1259
      4 C4         -1.4126   -2.0635    0.0045 C.3       1 <0>        -0.1121
      5 C5         -2.8479   -2.5931    0.0153 C.3       1 <0>        -0.1167
      6 C6         -2.8272   -4.1229    0.0069 C.3       1 <0>        -0.6022
      7 S1         -4.5290   -4.7508    0.0198 S.o2      1 <0>         2.4893
      8 O1         -5.1513   -4.4527    1.2620 O.2       1 <0>        -0.9265
      9 O2         -5.1749   -4.4395   -1.2071 O.2       1 <0>        -0.9260
     10 C7         -4.3645   -6.5051    0.0088 C.ar      1 <0>        -0.6253
     11 C8         -4.3060   -7.1835   -1.1970 C.ar      1 <0>        -0.0337
     12 C9         -4.1774   -8.5555   -1.2152 C.ar      1 <0>        -0.0806
     13 C10        -4.1054   -9.2640   -0.0109 C.ar      1 <0>        -0.1097
     14 C11        -4.1647   -8.5715    1.2041 C.ar      1 <0>        -0.0113
     15 C12        -4.2889   -7.1961    1.2044 C.ar      1 <0>        -0.0278
     16 Cl1        -4.0771   -9.4382    2.7057 Cl        1 <0>        -0.0194
     17 C13        -3.9686  -10.7283   -0.0214 C.2       1 <0>         0.3857
     18 O3         -3.9065  -11.3390    1.0243 O.2       1 <0>        -0.4155
     19 C14        -3.9055  -11.4698   -1.3319 C.3       1 <0>        -0.1624
     20 C15        -3.7641  -12.9693   -1.0632 C.3       1 <0>         0.0649
     21 N1         -3.7027  -13.6921   -2.3406 N.3       1 <0>        -0.5380
     22 C16        -4.9721  -13.5789   -3.0711 C.3       1 <0>         0.0355
     23 C17        -4.8097  -14.1871   -4.4682 C.3       1 <0>         0.1152
     24 N2         -4.2950  -15.5574   -4.3242 N.am      1 <0>        -0.6182
     25 C18        -3.1014  -15.7685   -3.4913 C.3       1 <0>         0.1095
     26 C19        -3.3311  -15.0980   -2.1327 C.3       1 <0>         0.0404
     27 C20        -4.9010  -16.5921   -4.9397 C.2       1 <0>         0.5129
     28 O4         -5.8842  -16.3996   -5.6232 O.2       1 <0>        -0.5453
     29 C21        -4.3567  -17.9881   -4.7785 C.3       1 <0>        -0.1767
     30 H1          1.0039    1.9031    0.0027 H         1 <0>         0.0543
     31 H2         -0.5459    1.8868   -0.8726 H         1 <0>         0.0543
     32 H3         -0.5289    1.8773    0.9072 H         1 <0>         0.0543
     33 H4          0.5123   -0.3556   -0.8948 H         1 <0>         0.0615
     34 H5          0.5293   -0.3651    0.8851 H         1 <0>         0.0615
     35 H6         -1.9435   -0.1821    0.9097 H         1 <0>         0.0655
     36 H7         -1.9605   -0.1726   -0.8702 H         1 <0>         0.0656
     37 H8         -0.9024   -2.4150   -0.8923 H         1 <0>         0.0684
     38 H9         -0.8854   -2.4246    0.8875 H         1 <0>         0.0683
     39 H10        -3.3581   -2.2415    0.9121 H         1 <0>         0.0831
     40 H11        -3.3751   -2.2320   -0.8677 H         1 <0>         0.0833
     41 H12        -2.3170   -4.4744   -0.8899 H         1 <0>         0.1392
     42 H13        -2.3000   -4.4840    0.8900 H         1 <0>         0.1387
     43 H14        -4.3616   -6.6357   -2.1261 H         1 <0>         0.1570
     44 H15        -4.1326   -9.0825   -2.1568 H         1 <0>         0.1540
     45 H16        -4.3308   -6.6591    2.1405 H         1 <0>         0.1591
     46 H17        -4.8192  -11.2866   -1.8973 H         1 <0>         0.1032
     47 H18        -3.0470  -11.1209   -1.9058 H         1 <0>         0.1138
     48 H19        -2.8504  -13.1525   -0.4978 H         1 <0>         0.0861
     49 H20        -4.6226  -13.3181   -0.4893 H         1 <0>         0.0447
     50 H21        -5.7522  -14.1141   -2.5298 H         1 <0>         0.0412
     51 H22        -5.2472  -12.5280   -3.1616 H         1 <0>         0.0900
     52 H23        -5.7759  -14.2099   -4.9722 H         1 <0>         0.0965
     53 H24        -4.1052  -13.5904   -5.0477 H         1 <0>         0.0765
     54 H25        -2.9381  -16.8368   -3.3495 H         1 <0>         0.0943
     55 H26        -2.2327  -15.3238   -3.9769 H         1 <0>         0.0803
     56 H27        -2.4160  -15.1489   -1.5426 H         1 <0>         0.0917
     57 H28        -4.1340  -15.6121   -1.6044 H         1 <0>         0.0420
     58 H29        -4.8249  -18.4633   -3.9165 H         1 <0>         0.0941
     59 H30        -4.5734  -18.5683   -5.6755 H         1 <0>         0.0948
     60 H31        -3.2783  -17.9424   -4.6271 H         1 <0>         0.0832
@<TRIPOS>BOND
     1    1    2 1
     2    1   30 1
     3    1   31 1
     4    1   32 1
     5    2    3 1
     6    2   33 1
     7    2   34 1
     8    3    4 1
     9    3   35 1
    10    3   36 1
    11    4    5 1
    12    4   37 1
    13    4   38 1
    14    5    6 1
    15    5   39 1
    16    5   40 1
    17    6    7 1
    18    6   41 1
    19    6   42 1
    20    7    8 2
    21    7    9 2
    22    7   10 1
    23   10   15 ar
    24   10   11 ar
    25   11   12 ar
    26   11   43 1
    27   12   13 ar
    28   12   44 1
    29   13   14 ar
    30   13   17 1
    31   14   15 ar
    32   14   16 1
    33   15   45 1
    34   17   18 2
    35   17   19 1
    36   19   20 1
    37   19   46 1
    38   19   47 1
    39   20   21 1
    40   20   48 1
    41   20   49 1
    42   21   26 1
    43   21   22 1
    44   22   23 1
    45   22   50 1
    46   22   51 1
    47   23   24 1
    48   23   52 1
    49   23   53 1
    50   24   25 1
    51   24   27 am
    52   25   26 1
    53   25   54 1
    54   25   55 1
    55   26   56 1
    56   26   57 1
    57   27   28 2
    58   27   29 1
    59   29   58 1
    60   29   59 1
    61   29   60 1
@<TRIPOS>MOLECULE
CHEMBL550768__1
   61    62     0     0     0
SMALL
USER_CHARGES

@<TRIPOS>ATOM
      1 C1         -0.0187    1.5258    0.0104 C.3       1 <0>        -0.1561
      2 C2          0.0021   -0.0041    0.0020 C.3       1 <0>        -0.1251
      3 C3          0.7182   -0.4975   -1.2568 C.3       1 <0>        -0.1267
      4 C4          0.7390   -2.0273   -1.2652 C.3       1 <0>        -0.1112
      5 C5          1.4551   -2.5207   -2.5240 C.3       1 <0>        -0.1181
      6 C6          1.4758   -4.0506   -2.5324 C.3       1 <0>        -0.5984
      7 S1          2.3249   -4.6356   -4.0249 S.o2      1 <0>         2.4836
      8 O1          1.5554   -4.3263   -5.1788 O.2       1 <0>        -0.9202
      9 O2          3.7053   -4.3039   -3.9645 O.2       1 <0>        -0.9217
     10 C7          2.2796   -6.3934   -3.9120 C.ar      1 <0>        -0.6141
     11 C8          3.3051   -7.0689   -3.2721 C.ar      1 <0>        -0.0326
     12 C9          3.2780   -8.4436   -3.1790 C.ar      1 <0>        -0.0834
     13 C10         2.2101   -9.1579   -3.7330 C.ar      1 <0>        -0.1250
     14 C11         1.1767   -8.4683   -4.3780 C.ar      1 <0>        -0.0048
     15 C12         1.2171   -7.0902   -4.4581 C.ar      1 <0>        -0.0239
     16 Cl1        -0.1540   -9.3422   -5.0702 Cl        1 <0>        -0.0117
     17 C13         2.1737  -10.6251   -3.6385 C.2       1 <0>         0.3982
     18 O3          1.2464  -11.2409   -4.1198 O.2       1 <0>        -0.4065
     19 C14         3.2886  -11.3633   -2.9436 C.3       1 <0>        -0.1988
     20 C15         3.0086  -12.8669   -2.9855 C.3       1 <0>        -0.0009
     21 N1          4.0954  -13.5865   -2.3081 N.4       1 <0>        -0.3840
     22 C16         5.3464  -13.3932   -3.0523 C.3       1 <0>        -0.0277
     23 C17         6.5014  -14.0467   -2.2864 C.3       1 <0>         0.0882
     24 N2          6.1563  -15.4543   -2.0341 N.am      1 <0>        -0.6383
     25 C18         4.8445  -15.7503   -1.4376 C.3       1 <0>         0.0834
     26 C19         3.7677  -15.0164   -2.2436 C.3       1 <0>        -0.0212
     27 C20         7.0173  -16.4447   -2.3412 C.2       1 <0>         0.5217
     28 O4          8.0942  -16.1813   -2.8328 O.2       1 <0>        -0.5125
     29 C21         6.6418  -17.8795   -2.0736 C.3       1 <0>        -0.1806
     30 H1          1.0039    1.9031    0.0027 H         1 <0>         0.0548
     31 H2         -0.5459    1.8868   -0.8726 H         1 <0>         0.0551
     32 H3         -0.5289    1.8773    0.9072 H         1 <0>         0.0554
     33 H4          0.5293   -0.3651    0.8851 H         1 <0>         0.0611
     34 H5         -1.0205   -0.3814    0.0098 H         1 <0>         0.0615
     35 H6          0.1910   -0.1364   -2.1398 H         1 <0>         0.0665
     36 H7          1.7408   -0.1202   -1.2645 H         1 <0>         0.0661
     37 H8          1.2661   -2.3884   -0.3821 H         1 <0>         0.0680
     38 H9         -0.2836   -2.4046   -1.2575 H         1 <0>         0.0685
     39 H10         0.9279   -2.1597   -3.4071 H         1 <0>         0.0849
     40 H11         2.4777   -2.1435   -2.5317 H         1 <0>         0.0845
     41 H12         2.0030   -4.4117   -1.6494 H         1 <0>         0.1387
     42 H13         0.4533   -4.4279   -2.5247 H         1 <0>         0.1393
     43 H14         4.1290   -6.5166   -2.8448 H         1 <0>         0.1604
     44 H15         4.0793   -8.9683   -2.6801 H         1 <0>         0.1493
     45 H16         0.4189   -6.5557   -4.9517 H         1 <0>         0.1645
     46 H17         4.2321  -11.1553   -3.4484 H         1 <0>         0.1260
     47 H18         3.3512  -11.0341   -1.9064 H         1 <0>         0.1281
     48 H19         2.0652  -13.0749   -2.4807 H         1 <0>         0.1432
     49 H20         2.9460  -13.1961   -4.0227 H         1 <0>         0.1400
     50 H21         5.2579  -13.8517   -4.0372 H         1 <0>         0.1366
     51 H22         5.5418  -12.3267   -3.1640 H         1 <0>         0.1439
     52 H23         7.4124  -13.9942   -2.8826 H         1 <0>         0.1368
     53 H24         6.6505  -13.5305   -1.3380 H         1 <0>         0.0959
     54 H25         4.6601  -16.8240   -1.4727 H         1 <0>         0.1361
     55 H26         4.8263  -15.4061   -0.4036 H         1 <0>         0.0992
     56 H27         2.7998  -15.1459   -1.7594 H         1 <0>         0.1475
     57 H28         3.7270  -15.4258   -3.2530 H         1 <0>         0.1365
     58 H29         6.1391  -18.2926   -2.9481 H         1 <0>         0.1034
     59 H30         7.5419  -18.4577   -1.8650 H         1 <0>         0.1062
     60 H31         5.9729  -17.9258   -1.2143 H         1 <0>         0.0861
     61 H32         4.2044  -13.2251   -1.3723 H         1 <0>         0.4240
@<TRIPOS>BOND
     1    1    2 1
     2    1   30 1
     3    1   31 1
     4    1   32 1
     5    2    3 1
     6    2   33 1
     7    2   34 1
     8    3    4 1
     9    3   35 1
    10    3   36 1
    11    4    5 1
    12    4   37 1
    13    4   38 1
    14    5    6 1
    15    5   39 1
    16    5   40 1
    17    6    7 1
    18    6   41 1
    19    6   42 1
    20    7    8 2
    21    7    9 2
    22    7   10 1
    23   10   15 ar
    24   10   11 ar
    25   11   12 ar
    26   11   43 1
    27   12   13 ar
    28   12   44 1
    29   13   14 ar
    30   13   17 1
    31   14   15 ar
    32   14   16 1
    33   15   45 1
    34   17   18 2
    35   17   19 1
    36   19   20 1
    37   19   46 1
    38   19   47 1
    39   20   21 1
    40   20   48 1
    41   20   49 1
    42   21   26 1
    43   21   22 1
    44   21   61 1
    45   22   23 1
    46   22   50 1
    47   22   51 1
    48   23   24 1
    49   23   52 1
    50   23   53 1
    51   24   25 1
    52   24   27 am
    53   25   26 1
    54   25   54 1
    55   25   55 1
    56   26   56 1
    57   26   57 1
    58   27   28 2
    59   27   29 1
    60   29   58 1
    61   29   59 1
    62   29   60 1
@<TRIPOS>MOLECULE
CHEMBL550845
   48    48     0     0     0
SMALL
USER_CHARGES

@<TRIPOS>ATOM
      1 C1         -0.0187    1.5258    0.0104 C.3       1 <0>        -0.1556
      2 C2          0.0021   -0.0041    0.0020 C.3       1 <0>        -0.1258
      3 C3          0.7421   -0.5109    1.2415 C.3       1 <0>        -0.1201
      4 C4          0.7628   -2.0407    1.2331 C.3       1 <0>        -0.1178
      5 C5          1.5028   -2.5476    2.4727 C.3       1 <0>        -0.1196
      6 C6          1.5236   -4.0774    2.4642 C.3       1 <0>         0.0497
      7 O1          2.2147   -4.5508    3.6219 O.3       1 <0>        -0.2863
      8 C7          2.3233   -5.8954    3.7677 C.ar      1 <0>         0.2044
      9 C8          1.7786   -6.7418    2.8093 C.ar      1 <0>        -0.2092
     10 C9          1.8856   -8.1080    2.9525 C.ar      1 <0>         0.0660
     11 C10         2.5458   -8.6434    4.0673 C.ar      1 <0>        -0.2110
     12 C11         3.0931   -7.7853    5.0296 C.ar      1 <0>        -0.0151
     13 C12         2.9848   -6.4219    4.8736 C.ar      1 <0>        -0.0867
     14 Cl1         3.6687   -5.3569    6.0618 Cl        1 <0>        -0.0281
     15 C13         2.6626  -10.0978    4.2258 C.2       1 <0>         0.4080
     16 O2          2.1874  -10.8390    3.3912 O.2       1 <0>        -0.4223
     17 C14         3.3728  -10.6705    5.4252 C.3       1 <0>        -0.1997
     18 C15         3.3533  -12.1984    5.3481 C.3       1 <0>        -0.0018
     19 N1          4.0456  -12.7566    6.5173 N.4       1 <0>        -0.3873
     20 C16         3.9236  -14.2205    6.5059 C.3       1 <0>        -0.0469
     21 C17         5.4656  -12.3833    6.4699 C.3       1 <0>        -0.0552
     22 Cl2         1.2038   -9.1641    1.7553 Cl        1 <0>        -0.0109
     23 H1          1.0039    1.9031    0.0027 H         1 <0>         0.0545
     24 H2         -0.5459    1.8868   -0.8726 H         1 <0>         0.0558
     25 H3         -0.5289    1.8773    0.9072 H         1 <0>         0.0545
     26 H4         -1.0205   -0.3814    0.0098 H         1 <0>         0.0616
     27 H5          0.5123   -0.3556   -0.8948 H         1 <0>         0.0616
     28 H6          1.7647   -0.1336    1.2338 H         1 <0>         0.0648
     29 H7          0.2319   -0.1594    2.1383 H         1 <0>         0.0648
     30 H8         -0.2598   -2.4180    1.2409 H         1 <0>         0.0669
     31 H9          1.2730   -2.3923    0.3363 H         1 <0>         0.0669
     32 H10         2.5254   -2.1703    2.4649 H         1 <0>         0.0787
     33 H11         0.9926   -2.1961    3.3695 H         1 <0>         0.0787
     34 H12         0.5010   -4.4547    2.4720 H         1 <0>         0.0732
     35 H13         2.0337   -4.4289    1.5675 H         1 <0>         0.0732
     36 H14         1.2703   -6.3280    1.9510 H         1 <0>         0.1588
     37 H15         3.6027   -8.1925    5.8903 H         1 <0>         0.1539
     38 H16         4.4051  -10.3205    5.4376 H         1 <0>         0.1236
     39 H17         2.8683  -10.3461    6.3353 H         1 <0>         0.1245
     40 H18         2.3211  -12.5484    5.3357 H         1 <0>         0.1397
     41 H19         3.8578  -12.5228    4.4380 H         1 <0>         0.1386
     42 H20         4.3729  -14.6155    5.5948 H         1 <0>         0.1234
     43 H21         4.4373  -14.6347    7.3735 H         1 <0>         0.1264
     44 H22         2.8699  -14.4975    6.5410 H         1 <0>         0.1248
     45 H23         5.5561  -11.2971    6.4784 H         1 <0>         0.1236
     46 H24         5.9793  -12.7975    7.3375 H         1 <0>         0.1273
     47 H25         5.9149  -12.7783    5.5588 H         1 <0>         0.1243
     48 H26         3.6297  -12.3910    7.3607 H         1 <0>         0.4273
@<TRIPOS>BOND
     1    1    2 1
     2    1   23 1
     3    1   24 1
     4    1   25 1
     5    2    3 1
     6    2   26 1
     7    2   27 1
     8    3    4 1
     9    3   28 1
    10    3   29 1
    11    4    5 1
    12    4   30 1
    13    4   31 1
    14    5    6 1
    15    5   32 1
    16    5   33 1
    17    6    7 1
    18    6   34 1
    19    6   35 1
    20    7    8 1
    21    8   13 ar
    22    8    9 ar
    23    9   10 ar
    24    9   36 1
    25   10   11 ar
    26   10   22 1
    27   11   12 ar
    28   11   15 1
    29   12   13 ar
    30   12   37 1
    31   13   14 1
    32   15   16 2
    33   15   17 1
    34   17   18 1
    35   17   38 1
    36   17   39 1
    37   18   19 1
    38   18   40 1
    39   18   41 1
    40   19   20 1
    41   19   21 1
    42   19   48 1
    43   20   42 1
    44   20   43 1
    45   20   44 1
    46   21   45 1
    47   21   46 1
    48   21   47 1
@<TRIPOS>MOLECULE
CHEMBL203555
   46    48     0     0     0
SMALL
USER_CHARGES

@<TRIPOS>ATOM
      1 C1         -0.0184    1.5028    0.0103 C.3       1 <0>        -0.1103
      2 C2          0.0021   -0.0041    0.0020 C.ar      1 <0>        -0.0825
      3 C3          0.0053   -0.6593   -1.1878 C.ar      1 <0>        -0.0804
      4 C4          0.0249   -2.0674   -1.2093 C.ar      1 <0>         0.1297
      5 C5          0.0412   -2.7926    0.0638 C.ar      1 <0>        -0.1096
      6 C6          0.0607   -4.1995    0.0414 C.ar      1 <0>        -0.0799
      7 C7          0.0634   -4.8215   -1.1733 C.ar      1 <0>        -0.1278
      8 C8          0.0476   -4.0693   -2.3566 C.ar      1 <0>         0.1174
      9 N1          0.0283   -2.7495   -2.3514 N.ar      1 <0>        -0.4330
     10 C9          0.0520   -4.7790   -3.6550 C.2       1 <0>         0.5291
     11 O1          0.0693   -6.0010   -3.6835 O.co2     1 <0>        -0.6771
     12 O2          0.0385   -4.1433   -4.6991 O.co2     1 <0>        -0.6535
     13 C10         0.0366   -2.0685    1.2632 C.ar      1 <0>        -0.0554
     14 C11         0.0230   -0.6918    1.2193 C.ar      1 <0>         0.0609
     15 O3          0.0244    0.0112    2.3810 O.3       1 <0>        -0.2485
     16 C12        -1.1752    0.3254    2.9384 C.ar      1 <0>         0.1242
     17 C13        -2.3524   -0.0763    2.3236 C.ar      1 <0>        -0.1798
     18 C14        -3.5708    0.2424    2.8901 C.ar      1 <0>        -0.1011
     19 C15        -3.6178    0.9641    4.0740 C.ar      1 <0>         0.0658
     20 C16        -2.4412    1.3660    4.6884 C.ar      1 <0>        -0.0646
     21 C17        -1.2222    1.0424    4.1248 C.ar      1 <0>        -0.1327
     22 C18        -2.4924    2.1504    5.9741 C.3       1 <0>        -0.0549
     23 C19        -1.7650    1.3747    7.0741 C.3       1 <0>        -0.1450
     24 C20        -1.8130    3.5063    5.7718 C.3       1 <0>        -0.1431
     25 O4         -4.8175    1.2779    4.6317 O.3       1 <0>        -0.4937
     26 C21         0.0531   -2.7880    2.5872 C.3       1 <0>        -0.1129
     27 H1          1.0042    1.8801    0.0026 H         1 <0>         0.0740
     28 H2         -0.5455    1.8639   -0.8728 H         1 <0>         0.0698
     29 H3         -0.5286    1.8543    0.9071 H         1 <0>         0.0648
     30 H4         -0.0073   -0.1029   -2.1133 H         1 <0>         0.1413
     31 H5          0.0735   -4.7700    0.9583 H         1 <0>         0.1358
     32 H6          0.0782   -5.9002   -1.2236 H         1 <0>         0.1457
     33 H7         -2.3159   -0.6378    1.4017 H         1 <0>         0.1330
     34 H8         -4.4871   -0.0699    2.4113 H         1 <0>         0.1305
     35 H9         -0.3058    1.3513    4.6058 H         1 <0>         0.1339
     36 H10        -3.5316    2.3045    6.2646 H         1 <0>         0.0861
     37 H11        -0.7258    1.2206    6.7837 H         1 <0>         0.0583
     38 H12        -1.8021    1.9420    8.0041 H         1 <0>         0.0584
     39 H13        -2.2490    0.4087    7.2183 H         1 <0>         0.0544
     40 H14        -2.3312    4.0590    4.9881 H         1 <0>         0.0566
     41 H15        -1.8501    4.0737    6.7017 H         1 <0>         0.0580
     42 H16        -0.7738    3.3523    5.4813 H         1 <0>         0.0575
     43 H17        -5.1477    0.6148    5.2533 H         1 <0>         0.3833
     44 H18         1.0847   -2.9469    2.9015 H         1 <0>         0.0777
     45 H19        -0.4658   -2.1870    3.3339 H         1 <0>         0.0680
     46 H20        -0.4475   -3.7507    2.4838 H         1 <0>         0.0717
@<TRIPOS>BOND
     1    1    2 1
     2    1   27 1
     3    1   28 1
     4    1   29 1
     5    2   14 ar
     6    2    3 ar
     7    3    4 ar
     8    3   30 1
     9    4    9 ar
    10    4    5 ar
    11    5    6 ar
    12    5   13 ar
    13    6    7 ar
    14    6   31 1
    15    7    8 ar
    16    7   32 1
    17    8    9 ar
    18    8   10 1
    19   10   11 2
    20   10   12 1
    21   13   14 ar
    22   13   26 1
    23   14   15 1
    24   15   16 1
    25   16   21 ar
    26   16   17 ar
    27   17   18 ar
    28   17   33 1
    29   18   19 ar
    30   18   34 1
    31   19   20 ar
    32   19   25 1
    33   20   21 ar
    34   20   22 1
    35   21   35 1
    36   22   23 1
    37   22   24 1
    38   22   36 1
    39   23   37 1
    40   23   38 1
    41   23   39 1
    42   24   40 1
    43   24   41 1
    44   24   42 1
    45   25   43 1
    46   26   44 1
    47   26   45 1
    48   26   46 1
@<TRIPOS>MOLECULE
CHEMBL42961
   52    54     0     0     0
SMALL
USER_CHARGES

@<TRIPOS>ATOM
      1 C1         -0.4052    1.4770    0.0173 C.3       1 <0>        -0.1101
      2 C2         -0.1889   -0.0144    0.0041 C.ar      1 <0>        -0.0609
      3 C3         -0.1801   -0.6997   -1.1940 C.ar      1 <0>        -0.1255
      4 C4          0.0197   -2.0747   -1.2059 C.ar      1 <0>         0.1807
      5 C5          0.2105   -2.7586   -0.0115 C.ar      1 <0>        -0.1553
      6 C6          0.2014   -2.0717    1.1857 C.ar      1 <0>        -0.0636
      7 C7          0.0070   -0.6975    1.1963 C.ar      1 <0>         0.0369
      8 O1          0.0033   -0.0210    2.3753 O.3       1 <0>        -0.2462
      9 C8         -1.1825    0.1237    3.0244 C.ar      1 <0>         0.1253
     10 C9         -2.3402   -0.4166    2.4831 C.ar      1 <0>        -0.1802
     11 C10        -3.5446   -0.2700    3.1428 C.ar      1 <0>        -0.1019
     12 C11        -3.5969    0.4176    4.3466 C.ar      1 <0>         0.0647
     13 C12        -2.4399    0.9581    4.8874 C.ar      1 <0>        -0.0642
     14 C13        -1.2341    0.8066    4.2306 C.ar      1 <0>        -0.1337
     15 C14        -2.4971    1.7058    6.1946 C.3       1 <0>        -0.0434
     16 C15        -1.5974    1.0116    7.2190 C.3       1 <0>        -0.1115
     17 C16        -1.6555    1.7707    8.5462 C.3       1 <0>        -0.1188
     18 C17        -1.1728    3.2070    8.3337 C.3       1 <0>        -0.1210
     19 C18        -2.0725    3.9011    7.3093 C.3       1 <0>        -0.1190
     20 C19        -2.0144    3.1420    5.9822 C.3       1 <0>        -0.1101
     21 O2         -4.7828    0.5619    4.9960 O.3       1 <0>        -0.4937
     22 C20         0.4078   -2.8132    2.4813 C.3       1 <0>        -0.1086
     23 N1          0.0284   -2.7697   -2.4187 N.am      1 <0>        -0.6653
     24 C21         0.5077   -2.1782   -3.5309 C.2       1 <0>         0.4522
     25 O3          1.0192   -1.0798   -3.4617 O.2       1 <0>        -0.5212
     26 C22         0.4092   -2.8754   -4.8501 C.2       1 <0>         0.4998
     27 O4          0.8432   -2.3398   -5.8572 O.co2     1 <0>        -0.6366
     28 O5         -0.1051   -3.9799   -4.9197 O.co2     1 <0>        -0.6650
     29 H1          0.5564    1.9842   -0.0615 H         1 <0>         0.0757
     30 H2         -1.0355    1.7602   -0.8257 H         1 <0>         0.0692
     31 H3         -0.8928    1.7652    0.9485 H         1 <0>         0.0646
     32 H4         -0.3288   -0.1675   -2.1219 H         1 <0>         0.1420
     33 H5          0.3656   -3.8274   -0.0198 H         1 <0>         0.1323
     34 H6         -2.2996   -0.9516    1.5458 H         1 <0>         0.1333
     35 H7         -4.4458   -0.6902    2.7213 H         1 <0>         0.1296
     36 H8         -0.3323    1.2234    4.6542 H         1 <0>         0.1328
     37 H9         -3.5234    1.7179    6.5616 H         1 <0>         0.0861
     38 H10        -1.9413   -0.0116    7.3704 H         1 <0>         0.0613
     39 H11        -0.5711    0.9995    6.8520 H         1 <0>         0.0655
     40 H12        -2.6818    1.7829    8.9131 H         1 <0>         0.0612
     41 H13        -1.0145    1.2762    9.2760 H         1 <0>         0.0615
     42 H14        -1.2142    3.7478    9.2792 H         1 <0>         0.0596
     43 H15        -0.1465    3.1948    7.9667 H         1 <0>         0.0619
     44 H16        -3.0988    3.9133    7.6763 H         1 <0>         0.0615
     45 H17        -1.7287    4.9243    7.1580 H         1 <0>         0.0619
     46 H18        -0.9882    3.1299    5.6152 H         1 <0>         0.0648
     47 H19        -2.6555    3.6366    5.2524 H         1 <0>         0.0636
     48 H20        -4.9784   -0.1499    5.6207 H         1 <0>         0.3823
     49 H21         1.4716   -2.8443    2.7167 H         1 <0>         0.0738
     50 H22        -0.1267   -2.3017    3.2819 H         1 <0>         0.0649
     51 H23         0.0277   -3.8300    2.3825 H         1 <0>         0.0680
     52 H24        -0.3106   -3.6776   -2.4599 H         1 <0>         0.4189
@<TRIPOS>BOND
     1    1    2 1
     2    1   29 1
     3    1   30 1
     4    1   31 1
     5    2    7 ar
     6    2    3 ar
     7    3    4 ar
     8    3   32 1
     9    4    5 ar
    10    4   23 1
    11    5    6 ar
    12    5   33 1
    13    6    7 ar
    14    6   22 1
    15    7    8 1
    16    8    9 1
    17    9   14 ar
    18    9   10 ar
    19   10   11 ar
    20   10   34 1
    21   11   12 ar
    22   11   35 1
    23   12   13 ar
    24   12   21 1
    25   13   14 ar
    26   13   15 1
    27   14   36 1
    28   15   20 1
    29   15   16 1
    30   15   37 1
    31   16   17 1
    32   16   38 1
    33   16   39 1
    34   17   18 1
    35   17   40 1
    36   17   41 1
    37   18   19 1
    38   18   42 1
    39   18   43 1
    40   19   20 1
    41   19   44 1
    42   19   45 1
    43   20   46 1
    44   20   47 1
    45   21   48 1
    46   22   49 1
    47   22   50 1
    48   22   51 1
    49   23   24 am
    50   23   52 1
    51   24   25 2
    52   24   26 1
    53   26   27 2
    54   26   28 1
@<TRIPOS>MOLECULE
CHEMBL550758
   48    48     0     0     0
SMALL
USER_CHARGES

@<TRIPOS>ATOM
      1 C1         -0.0187    1.5258    0.0104 C.3       1 <0>        -0.1557
      2 C2          0.0021   -0.0041    0.0020 C.3       1 <0>        -0.1259
      3 C3          0.7421   -0.5109    1.2415 C.3       1 <0>        -0.1202
      4 C4          0.7628   -2.0407    1.2331 C.3       1 <0>        -0.1181
      5 C5          1.5028   -2.5476    2.4727 C.3       1 <0>        -0.1203
      6 C6          1.5236   -4.0774    2.4642 C.3       1 <0>         0.0499
      7 O1          2.2147   -4.5508    3.6219 O.3       1 <0>        -0.2928
      8 C7          2.3233   -5.8952    3.7676 C.ar      1 <0>         0.2098
      9 C8          1.7782   -6.7417    2.8086 C.ar      1 <0>        -0.2139
     10 C9          1.8851   -8.1075    2.9507 C.ar      1 <0>         0.0740
     11 C10         2.5452   -8.6438    4.0655 C.ar      1 <0>        -0.2133
     12 C11         3.0927   -7.7848    5.0290 C.ar      1 <0>         0.0595
     13 C12         2.9841   -6.4207    4.8724 C.ar      1 <0>        -0.1524
     14 Cl1         3.9115   -8.4390    6.4130 Cl        1 <0>        -0.0432
     15 C13         2.6622  -10.0974    4.2232 C.2       1 <0>         0.4083
     16 O2          2.1873  -10.8383    3.3883 O.2       1 <0>        -0.4213
     17 C14         3.3724  -10.6704    5.4225 C.3       1 <0>        -0.2079
     18 C15         3.3531  -12.1983    5.3448 C.3       1 <0>        -0.0072
     19 N1          4.0453  -12.7569    6.5138 N.4       1 <0>        -0.3867
     20 C16         3.9235  -14.2208    6.5018 C.3       1 <0>        -0.0464
     21 C17         5.4652  -12.3833    6.4669 C.3       1 <0>        -0.0550
     22 Cl2         1.2034   -9.1627    1.7526 Cl        1 <0>        -0.0045
     23 H1          1.0039    1.9031    0.0027 H         1 <0>         0.0545
     24 H2         -0.5459    1.8868   -0.8726 H         1 <0>         0.0559
     25 H3         -0.5289    1.8773    0.9072 H         1 <0>         0.0545
     26 H4         -1.0205   -0.3814    0.0098 H         1 <0>         0.0617
     27 H5          0.5123   -0.3556   -0.8948 H         1 <0>         0.0617
     28 H6          1.7647   -0.1336    1.2338 H         1 <0>         0.0648
     29 H7          0.2319   -0.1594    2.1383 H         1 <0>         0.0648
     30 H8         -0.2598   -2.4180    1.2409 H         1 <0>         0.0672
     31 H9          1.2730   -2.3923    0.3363 H         1 <0>         0.0672
     32 H10         2.5254   -2.1703    2.4649 H         1 <0>         0.0786
     33 H11         0.9926   -2.1961    3.3695 H         1 <0>         0.0787
     34 H12         0.5010   -4.4547    2.4720 H         1 <0>         0.0737
     35 H13         2.0337   -4.4289    1.5675 H         1 <0>         0.0736
     36 H14         1.2697   -6.3274    1.9507 H         1 <0>         0.1578
     37 H15         3.4091   -5.7579    5.6116 H         1 <0>         0.1613
     38 H16         4.4045  -10.3203    5.4352 H         1 <0>         0.1277
     39 H17         2.8676  -10.3465    6.3327 H         1 <0>         0.1285
     40 H18         2.3209  -12.5485    5.3321 H         1 <0>         0.1390
     41 H19         3.8578  -12.5222    4.4346 H         1 <0>         0.1378
     42 H20         4.3730  -14.6153    5.5906 H         1 <0>         0.1235
     43 H21         4.4372  -14.6353    7.3693 H         1 <0>         0.1261
     44 H22         2.8699  -14.4980    6.5367 H         1 <0>         0.1248
     45 H23         5.5556  -11.2971    6.4758 H         1 <0>         0.1202
     46 H24         5.9789  -12.7978    7.3343 H         1 <0>         0.1278
     47 H25         5.9148  -12.7778    5.5556 H         1 <0>         0.1256
     48 H26         3.6292  -12.3917    7.3574 H         1 <0>         0.4264
@<TRIPOS>BOND
     1    1    2 1
     2    1   23 1
     3    1   24 1
     4    1   25 1
     5    2    3 1
     6    2   26 1
     7    2   27 1
     8    3    4 1
     9    3   28 1
    10    3   29 1
    11    4    5 1
    12    4   30 1
    13    4   31 1
    14    5    6 1
    15    5   32 1
    16    5   33 1
    17    6    7 1
    18    6   34 1
    19    6   35 1
    20    7    8 1
    21    8   13 ar
    22    8    9 ar
    23    9   10 ar
    24    9   36 1
    25   10   11 ar
    26   10   22 1
    27   11   12 ar
    28   11   15 1
    29   12   13 ar
    30   12   14 1
    31   13   37 1
    32   15   16 2
    33   15   17 1
    34   17   18 1
    35   17   38 1
    36   17   39 1
    37   18   19 1
    38   18   40 1
    39   18   41 1
    40   19   20 1
    41   19   21 1
    42   19   48 1
    43   20   42 1
    44   20   43 1
    45   20   44 1
    46   21   45 1
    47   21   46 1
    48   21   47 1
@<TRIPOS>MOLECULE
CHEMBL163221
   39    40     0     0     0
SMALL
USER_CHARGES

@<TRIPOS>ATOM
      1 C1         -0.1467    1.8595    0.0863 C.3       1 <0>        -0.1433
      2 C2         -0.1212    0.3459   -0.1356 C.3       1 <0>        -0.0541
      3 C3          0.6841   -0.3199    0.9820 C.3       1 <0>        -0.1447
      4 C4         -1.5307   -0.1871   -0.1252 C.ar      1 <0>        -0.0642
      5 C5         -2.3231   -0.0225    0.9943 C.ar      1 <0>        -0.1204
      6 C6         -3.6205   -0.5132    1.0039 C.ar      1 <0>         0.1264
      7 C7         -4.1223   -1.1692   -0.1111 C.ar      1 <0>        -0.1759
      8 C8         -3.3299   -1.3336   -1.2301 C.ar      1 <0>        -0.0984
      9 C9         -2.0342   -0.8379   -1.2416 C.ar      1 <0>         0.0717
     10 O1         -1.2562   -0.9946   -2.3457 O.3       1 <0>        -0.4929
     11 O2         -4.4004   -0.3516    2.1058 O.3       1 <0>        -0.2413
     12 C10        -5.6653   -0.8484    2.0708 C.ar      1 <0>         0.1069
     13 C11        -6.7091   -0.0567    1.6116 C.ar      1 <0>        -0.0862
     14 C12        -7.9943   -0.5607    1.5759 C.ar      1 <0>        -0.0706
     15 C13        -8.2424   -1.8607    1.9992 C.ar      1 <0>         0.1820
     16 C14        -7.1971   -2.6526    2.4583 C.ar      1 <0>        -0.1006
     17 C15        -5.9117   -2.1490    2.4890 C.ar      1 <0>        -0.0865
     18 I1         -4.3341   -3.3455    3.1737 I         1 <0>        -0.0124
     19 N1         -9.5432   -2.3713    1.9638 N.am      1 <0>        -0.6617
     20 C16       -10.3930   -1.9837    0.9921 C.2       1 <0>         0.4526
     21 O3        -10.0019   -1.2671    0.0942 O.2       1 <0>        -0.5167
     22 C17       -11.8178   -2.4367    1.0205 C.2       1 <0>         0.5013
     23 O4        -12.5873   -2.0858    0.1407 O.co2     1 <0>        -0.6321
     24 O5        -12.2111   -3.1573    1.9235 O.co2     1 <0>        -0.6617
     25 I2         -6.3347    1.9032    0.9733 I         1 <0>        -0.0088
     26 H1          0.8728    2.2450    0.0788 H         1 <0>         0.0575
     27 H2         -0.7204    2.3338   -0.7099 H         1 <0>         0.0569
     28 H3         -0.6106    2.0779    1.0481 H         1 <0>         0.0577
     29 H4          0.3428    0.1274   -1.0974 H         1 <0>         0.0861
     30 H5          0.2201   -0.1015    1.9439 H         1 <0>         0.0585
     31 H6          0.7022   -1.3983    0.8240 H         1 <0>         0.0544
     32 H7          1.7036    0.0656    0.9745 H         1 <0>         0.0579
     33 H8         -1.9324    0.4878    1.8622 H         1 <0>         0.1346
     34 H9         -5.1323   -1.5516   -0.1036 H         1 <0>         0.1271
     35 H10        -3.7203   -1.8446   -2.0978 H         1 <0>         0.1309
     36 H11        -0.7371   -1.8104   -2.3485 H         1 <0>         0.3831
     37 H12        -8.8064    0.0555    1.2193 H         1 <0>         0.1569
     38 H13        -7.3894   -3.6631    2.7875 H         1 <0>         0.1466
     39 H14        -9.8342   -3.0046    2.6384 H         1 <0>         0.4236
@<TRIPOS>BOND
     1    1    2 1
     2    1   26 1
     3    1   27 1
     4    1   28 1
     5    2    3 1
     6    2    4 1
     7    2   29 1
     8    3   30 1
     9    3   31 1
    10    3   32 1
    11    4    9 ar
    12    4    5 ar
    13    5    6 ar
    14    5   33 1
    15    6    7 ar
    16    6   11 1
    17    7    8 ar
    18    7   34 1
    19    8    9 ar
    20    8   35 1
    21    9   10 1
    22   10   36 1
    23   11   12 1
    24   12   17 ar
    25   12   13 ar
    26   13   14 ar
    27   13   25 1
    28   14   15 ar
    29   14   37 1
    30   15   16 ar
    31   15   19 1
    32   16   17 ar
    33   16   38 1
    34   17   18 1
    35   19   20 am
    36   19   39 1
    37   20   21 2
    38   20   22 1
    39   22   23 2
    40   22   24 1
@<TRIPOS>MOLECULE
CHEMBL194242
   38    40     0     0     0
SMALL
USER_CHARGES

@<TRIPOS>ATOM
      1 C1          0.0277    1.3892    0.2025 C.ar      1 <0>        -0.0945
      2 C2          1.1720    2.1061    0.0228 C.ar      1 <0>        -0.1133
      3 C3          2.3947    1.4426   -0.1785 C.ar      1 <0>        -0.0154
      4 C4          2.4268    0.0266   -0.1928 C.ar      1 <0>        -0.0323
      5 C5          3.6456   -0.6374   -0.3944 C.ar      1 <0>        -0.0594
      6 C6          4.7879    0.0803   -0.5747 C.ar      1 <0>        -0.1407
      7 C7          4.7671    1.4778   -0.5623 C.ar      1 <0>         0.1476
      8 C8          3.5883    2.1611   -0.3666 C.ar      1 <0>        -0.1176
      9 Br1         3.5742    4.0520   -0.3528 Br        1 <0>        -0.0343
     10 O1          5.9229    2.1692   -0.7449 O.3       1 <0>        -0.4866
     11 C9          1.2233   -0.6942   -0.0031 C.ar      1 <0>        -0.0153
     12 C10         0.0412   -0.0007    0.1913 C.ar      1 <0>        -0.0898
     13 C11         1.2286   -2.1747   -0.0140 C.ar      1 <0>        -0.0745
     14 C12         1.4183   -2.8826    1.1746 C.ar      1 <0>         0.0144
     15 C13         1.4228   -4.2620    1.1608 C.ar      1 <0>        -0.1149
     16 C14         1.2392   -4.9472   -0.0345 C.ar      1 <0>         0.2031
     17 C15         1.0501   -4.2459   -1.2194 C.ar      1 <0>        -0.1478
     18 C16         1.0383   -2.8664   -1.2120 C.ar      1 <0>         0.0121
     19 Cl1         0.7943   -1.9914   -2.6913 Cl        1 <0>        -0.0516
     20 N1          1.2452   -6.3451   -0.0449 N.am      1 <0>        -0.6889
     21 C17         0.7631   -7.0290    1.0117 C.2       1 <0>         0.5072
     22 O2          0.2370   -6.4355    1.9293 O.2       1 <0>        -0.4530
     23 C18         0.8775   -8.5311    1.0529 C.3       1 <0>        -0.2068
     24 C19         0.2664   -9.0466    2.3303 C.2       1 <0>         0.4938
     25 O3         -0.2172   -8.2666    3.1329 O.co2     1 <0>        -0.6541
     26 O4          0.2557  -10.2437    2.5612 O.co2     1 <0>        -0.7015
     27 Cl2         1.6488   -2.0277    2.6678 Cl        1 <0>        -0.0446
     28 H1         -0.9053    1.9097    0.3608 H         1 <0>         0.1307
     29 H2          1.1397    3.1855    0.0346 H         1 <0>         0.1342
     30 H3          3.6778   -1.7168   -0.4062 H         1 <0>         0.1353
     31 H4          5.7232   -0.4372   -0.7291 H         1 <0>         0.1392
     32 H5          6.1162    2.3749   -1.6698 H         1 <0>         0.3939
     33 H6         -0.8801   -0.5453    0.3365 H         1 <0>         0.1301
     34 H7          1.5694   -4.8101    2.0797 H         1 <0>         0.1585
     35 H8          0.9081   -4.7815   -2.1464 H         1 <0>         0.1442
     36 H9          1.5964   -6.8229   -0.8125 H         1 <0>         0.4096
     37 H10         0.3512   -8.9591    0.1997 H         1 <0>         0.0908
     38 H11         1.9287   -8.8166    1.0119 H         1 <0>         0.0921
@<TRIPOS>BOND
     1    1   12 ar
     2    1    2 ar
     3    1   28 1
     4    2    3 ar
     5    2   29 1
     6    3    8 ar
     7    3    4 ar
     8    4    5 ar
     9    4   11 ar
    10    5    6 ar
    11    5   30 1
    12    6    7 ar
    13    6   31 1
    14    7    8 ar
    15    7   10 1
    16    8    9 1
    17   10   32 1
    18   11   12 ar
    19   11   13 1
    20   12   33 1
    21   13   18 ar
    22   13   14 ar
    23   14   15 ar
    24   14   27 1
    25   15   16 ar
    26   15   34 1
    27   16   17 ar
    28   16   20 1
    29   17   18 ar
    30   17   35 1
    31   18   19 1
    32   20   21 am
    33   20   36 1
    34   21   22 2
    35   21   23 1
    36   23   24 1
    37   23   37 1
    38   23   38 1
    39   24   25 2
    40   24   26 1
@<TRIPOS>MOLECULE
CHEMBL217298
   40    41     0     0     0
SMALL
USER_CHARGES

@<TRIPOS>ATOM
      1 C1          0.3652    1.3342   -0.7525 C.ar      1 <0>        -0.1594
      2 C2          1.5430    2.0253   -0.5342 C.ar      1 <0>        -0.0990
      3 C3          2.7219    1.3355   -0.3288 C.ar      1 <0>        -0.2107
      4 C4          2.7238   -0.0520   -0.3413 C.ar      1 <0>         0.1276
      5 C5          1.5410   -0.7428   -0.5601 C.ar      1 <0>        -0.0936
      6 C6          0.3644   -0.0482   -0.7655 C.ar      1 <0>        -0.0873
      7 C7          1.5395   -2.2498   -0.5748 C.3       1 <0>        -0.0484
      8 C8          1.3564   -2.7735    0.8511 C.3       1 <0>        -0.1782
      9 C9          1.4677   -4.2764    0.8524 C.2       1 <0>         0.4931
     10 O1          1.6742   -4.8733   -0.1905 O.co2     1 <0>        -0.6974
     11 O2          1.3511   -4.8954    1.8963 O.co2     1 <0>        -0.7086
     12 O3          3.8825   -0.7329   -0.1400 O.3       1 <0>        -0.2734
     13 C10         5.0823    0.0388   -0.0563 C.3       1 <0>         0.0503
     14 C11         6.2880   -0.8999    0.0218 C.3       1 <0>        -0.0763
     15 C12         6.2624   -1.6532    1.3533 C.3       1 <0>        -0.0845
     16 C13         7.4681   -2.5919    1.4314 C.3       1 <0>        -0.1141
     17 C14         8.7579   -1.7747    1.3324 C.3       1 <0>        -0.1266
     18 C15         8.7834   -1.0214    0.0010 C.3       1 <0>        -0.1153
     19 C16         7.5777   -0.0827   -0.0771 C.3       1 <0>        -0.0356
     20 Br1         7.6529    1.2054    1.4062 Br        1 <0>        -0.1548
     21 Br2         4.6052   -2.7032    1.4804 Br        1 <0>        -0.0684
     22 H1         -0.5563    1.8753   -0.9088 H         1 <0>         0.1162
     23 H2          1.5410    3.1052   -0.5246 H         1 <0>         0.1155
     24 H3          3.6416    1.8757   -0.1591 H         1 <0>         0.1201
     25 H4         -0.5566   -0.5857   -0.9362 H         1 <0>         0.1246
     26 H5          0.7214   -2.6062   -1.2006 H         1 <0>         0.0610
     27 H6          2.4870   -2.6102   -0.9754 H         1 <0>         0.0785
     28 H7          2.1281   -2.3515    1.4950 H         1 <0>         0.0655
     29 H8          0.3740   -2.4816    1.2220 H         1 <0>         0.0488
     30 H9          5.1704    0.6706   -0.9401 H         1 <0>         0.0628
     31 H10         5.0505    0.6644    0.8358 H         1 <0>         0.0708
     32 H11         6.2464   -1.6140   -0.8006 H         1 <0>         0.1107
     33 H12         6.3041   -0.9390    2.1757 H         1 <0>         0.1067
     34 H13         7.4499   -3.1286    2.3799 H         1 <0>         0.0783
     35 H14         7.4265   -3.3060    0.6090 H         1 <0>         0.0764
     36 H15         8.7995   -1.0606    2.1548 H         1 <0>         0.0754
     37 H16         9.6168   -2.4435    1.3880 H         1 <0>         0.0740
     38 H17         9.7023   -0.4393   -0.0695 H         1 <0>         0.0783
     39 H18         8.7418   -1.7356   -0.8214 H         1 <0>         0.0847
     40 H19         7.5959    0.4540   -1.0257 H         1 <0>         0.1122
@<TRIPOS>BOND
     1    1    6 ar
     2    1    2 ar
     3    1   22 1
     4    2    3 ar
     5    2   23 1
     6    3    4 ar
     7    3   24 1
     8    4    5 ar
     9    4   12 1
    10    5    6 ar
    11    5    7 1
    12    6   25 1
    13    7    8 1
    14    7   26 1
    15    7   27 1
    16    8    9 1
    17    8   28 1
    18    8   29 1
    19    9   10 2
    20    9   11 1
    21   12   13 1
    22   13   14 1
    23   13   30 1
    24   13   31 1
    25   14   19 1
    26   14   15 1
    27   14   32 1
    28   15   16 1
    29   15   21 1
    30   15   33 1
    31   16   17 1
    32   16   34 1
    33   16   35 1
    34   17   18 1
    35   17   36 1
    36   17   37 1
    37   18   19 1
    38   18   38 1
    39   18   39 1
    40   19   20 1
    41   19   40 1
@<TRIPOS>MOLECULE
CHEMBL217298__1
   40    41     0     0     0
SMALL
USER_CHARGES

@<TRIPOS>ATOM
      1 C1          0.2861    1.3277   -0.7819 C.ar      1 <0>        -0.1594
      2 C2          1.4637    2.0238   -0.5794 C.ar      1 <0>        -0.0990
      3 C3          2.6457    1.3391   -0.3747 C.ar      1 <0>        -0.2102
      4 C4          2.6507   -0.0485   -0.3718 C.ar      1 <0>         0.1280
      5 C5          1.4680   -0.7444   -0.5746 C.ar      1 <0>        -0.0934
      6 C6          0.2885   -0.0548   -0.7795 C.ar      1 <0>        -0.0873
      7 C7          1.4700   -2.2514   -0.5726 C.3       1 <0>        -0.0489
      8 C8          1.2911   -2.7597    0.8594 C.3       1 <0>        -0.1774
      9 C9          1.4062   -4.2622    0.8771 C.2       1 <0>         0.4925
     10 O1          1.6122   -4.8701   -0.1594 O.co2     1 <0>        -0.6964
     11 O2          1.2933   -4.8699    1.9281 O.co2     1 <0>        -0.7091
     12 O3          3.8124   -0.7245   -0.1710 O.3       1 <0>        -0.2728
     13 C10         5.0109    0.0508   -0.1041 C.3       1 <0>         0.0478
     14 C11         6.2194   -0.8842   -0.0251 C.3       1 <0>        -0.0757
     15 C12         6.2035   -1.6262    1.3129 C.3       1 <0>        -0.0774
     16 C13         7.4120   -2.5612    1.3919 C.3       1 <0>        -0.1179
     17 C14         8.6991   -1.7418    1.2784 C.3       1 <0>        -0.1161
     18 C15         8.7150   -0.9998   -0.0595 C.3       1 <0>        -0.1146
     19 C16         7.5065   -0.0648   -0.1385 C.3       1 <0>        -0.0348
     20 Br1         7.5269    0.8887   -1.8577 Br        1 <0>        -0.1541
     21 Br2         4.5496   -2.6791    1.4587 Br        1 <0>        -0.0623
     22 H1         -0.6378    1.8649   -0.9376 H         1 <0>         0.1162
     23 H2          1.4593    3.1038   -0.5818 H         1 <0>         0.1154
     24 H3          3.5652    1.8832   -0.2173 H         1 <0>         0.1194
     25 H4         -0.6325   -0.5962   -0.9378 H         1 <0>         0.1245
     26 H5          0.6513   -2.6166   -1.1927 H         1 <0>         0.0613
     27 H6          2.4175   -2.6140   -0.9712 H         1 <0>         0.0791
     28 H7          2.0629   -2.3286    1.4970 H         1 <0>         0.0644
     29 H8          0.3086   -2.4662    1.2290 H         1 <0>         0.0489
     30 H9          5.0910    0.6736   -0.9951 H         1 <0>         0.0748
     31 H10         4.9841    0.6855    0.7816 H         1 <0>         0.0598
     32 H11         6.1747   -1.6054   -0.8411 H         1 <0>         0.1060
     33 H12         6.2482   -0.9049    2.1289 H         1 <0>         0.0983
     34 H13         7.4006   -3.0898    2.3451 H         1 <0>         0.0798
     35 H14         7.3673   -3.2824    0.5759 H         1 <0>         0.0793
     36 H15         8.7437   -1.0205    2.0945 H         1 <0>         0.0668
     37 H16         9.5600   -2.4079    1.3348 H         1 <0>         0.0776
     38 H17         9.6319   -0.4160   -0.1403 H         1 <0>         0.0786
     39 H18         8.6703   -1.7210   -0.8755 H         1 <0>         0.0802
     40 H19         7.5511    0.6565    0.6775 H         1 <0>         0.1083
@<TRIPOS>BOND
     1    1    6 ar
     2    1    2 ar
     3    1   22 1
     4    2    3 ar
     5    2   23 1
     6    3    4 ar
     7    3   24 1
     8    4    5 ar
     9    4   12 1
    10    5    6 ar
    11    5    7 1
    12    6   25 1
    13    7    8 1
    14    7   26 1
    15    7   27 1
    16    8    9 1
    17    8   28 1
    18    8   29 1
    19    9   10 2
    20    9   11 1
    21   12   13 1
    22   13   14 1
    23   13   30 1
    24   13   31 1
    25   14   19 1
    26   14   15 1
    27   14   32 1
    28   15   16 1
    29   15   21 1
    30   15   33 1
    31   16   17 1
    32   16   34 1
    33   16   35 1
    34   17   18 1
    35   17   36 1
    36   17   37 1
    37   18   19 1
    38   18   38 1
    39   18   39 1
    40   19   20 1
    41   19   40 1
@<TRIPOS>MOLECULE
CHEMBL217298__2
   40    41     0     0     0
SMALL
USER_CHARGES

@<TRIPOS>ATOM
      1 C1         -0.0167    1.3782    0.0096 C.ar      1 <0>        -0.1562
      2 C2          1.1700    2.0882    0.0021 C.ar      1 <0>        -0.0979
      3 C3          2.3773    1.4175   -0.0134 C.ar      1 <0>        -0.2068
      4 C4          2.3989    0.0301   -0.0210 C.ar      1 <0>         0.1307
      5 C5          1.2072   -0.6797   -0.0130 C.ar      1 <0>        -0.0942
      6 C6          0.0021   -0.0041    0.0020 C.ar      1 <0>        -0.0860
      7 C7          1.2269   -2.1866   -0.0218 C.3       1 <0>        -0.0496
      8 C8          1.3738   -2.7030    1.4109 C.3       1 <0>        -0.1704
      9 C9          1.3935   -4.2098    1.4022 C.2       1 <0>         0.4906
     10 O1          1.2988   -4.8146    0.3478 O.co2     1 <0>        -0.6991
     11 O2          1.5041   -4.8241    2.4496 O.co2     1 <0>        -0.7076
     12 O3          3.5855   -0.6321   -0.0368 O.3       1 <0>        -0.2986
     13 C10         4.7724    0.1636   -0.0448 C.3       1 <0>         0.0469
     14 C11         5.9992   -0.7506   -0.0623 C.3       1 <0>        -0.0776
     15 C12         6.0573   -1.5511    1.2403 C.3       1 <0>        -0.0359
     16 C13         7.2840   -2.4653    1.2228 C.3       1 <0>        -0.1202
     17 C14         8.5502   -1.6171    1.0886 C.3       1 <0>        -0.1263
     18 C15         8.4922   -0.8166   -0.2140 C.3       1 <0>        -0.1118
     19 C16         7.2654    0.0976   -0.1965 C.3       1 <0>        -0.0422
     20 Br1         7.1908    1.1262   -1.8703 Br        1 <0>        -0.1558
     21 Br2         6.1827   -0.3151    2.7640 Br        1 <0>        -0.1579
     22 H1         -0.9596    1.9045    0.0259 H         1 <0>         0.1182
     23 H2          1.1527    3.1681    0.0080 H         1 <0>         0.1177
     24 H3          3.3038    1.9724   -0.0200 H         1 <0>         0.1215
     25 H4         -0.9260   -0.5563    0.0079 H         1 <0>         0.1270
     26 H5          0.2960   -2.5596   -0.4488 H         1 <0>         0.0673
     27 H6          2.0674   -2.5355   -0.6217 H         1 <0>         0.0729
     28 H7          2.3047   -2.3299    1.8380 H         1 <0>         0.0562
     29 H8          0.5333   -2.3541    2.0109 H         1 <0>         0.0530
     30 H9          4.7790    0.7974   -0.9315 H         1 <0>         0.0756
     31 H10         4.7973    0.7880    0.8483 H         1 <0>         0.0734
     32 H11         5.9296   -1.4359   -0.9071 H         1 <0>         0.1131
     33 H12         5.1551   -2.1554    1.3359 H         1 <0>         0.1281
     34 H13         7.3254   -3.0356    2.1508 H         1 <0>         0.0838
     35 H14         7.2144   -3.1506    0.3780 H         1 <0>         0.0868
     36 H15         8.6198   -0.9319    1.9334 H         1 <0>         0.0773
     37 H16         9.4242   -2.2684    1.0761 H         1 <0>         0.0777
     38 H17         9.3943   -0.2123   -0.3097 H         1 <0>         0.0799
     39 H18         8.4226   -1.5019   -1.0588 H         1 <0>         0.0788
     40 H19         7.3350    0.7828    0.6483 H         1 <0>         0.1178
@<TRIPOS>BOND
     1    1    6 ar
     2    1    2 ar
     3    1   22 1
     4    2    3 ar
     5    2   23 1
     6    3    4 ar
     7    3   24 1
     8    4    5 ar
     9    4   12 1
    10    5    6 ar
    11    5    7 1
    12    6   25 1
    13    7    8 1
    14    7   26 1
    15    7   27 1
    16    8    9 1
    17    8   28 1
    18    8   29 1
    19    9   10 2
    20    9   11 1
    21   12   13 1
    22   13   14 1
    23   13   30 1
    24   13   31 1
    25   14   19 1
    26   14   15 1
    27   14   32 1
    28   15   16 1
    29   15   21 1
    30   15   33 1
    31   16   17 1
    32   16   34 1
    33   16   35 1
    34   17   18 1
    35   17   36 1
    36   17   37 1
    37   18   19 1
    38   18   38 1
    39   18   39 1
    40   19   20 1
    41   19   40 1
@<TRIPOS>MOLECULE
CHEMBL322361
   49    50     0     0     0
SMALL
USER_CHARGES

@<TRIPOS>ATOM
      1 C1         -0.1185    1.2977   -0.1464 C.3       1 <0>        -0.1166
      2 C2         -0.0160   -0.2008   -0.0247 C.ar      1 <0>        -0.0760
      3 C3         -0.0930   -0.9929   -1.1550 C.ar      1 <0>        -0.1238
      4 C4          0.0010   -2.3675   -1.0434 C.ar      1 <0>        -0.0561
      5 C5          0.1724   -2.9501    0.1985 C.ar      1 <0>        -0.1239
      6 C6          0.2503   -2.1579    1.3286 C.ar      1 <0>        -0.0764
      7 C7          0.1606   -0.7830    1.2166 C.ar      1 <0>        -0.0972
      8 C8          0.2507    0.0808    2.4481 C.3       1 <0>        -0.0422
      9 C9          1.6896    0.4542    2.6956 C.ar      1 <0>        -0.0709
     10 C10         2.4848   -0.3512    3.4901 C.ar      1 <0>        -0.1066
     11 C11         3.8038   -0.0109    3.7189 C.ar      1 <0>        -0.1398
     12 C12         4.3308    1.1398    3.1504 C.ar      1 <0>         0.0961
     13 C13         3.5312    1.9458    2.3534 C.ar      1 <0>        -0.0974
     14 C14         2.2138    1.5983    2.1234 C.ar      1 <0>        -0.0980
     15 C15         4.1003    3.1963    1.7344 C.3       1 <0>        -0.0559
     16 C16         3.9989    3.1029    0.2106 C.3       1 <0>        -0.1458
     17 C17         3.3117    4.4124    2.2244 C.3       1 <0>        -0.1413
     18 O1          5.6281    1.4770    3.3743 O.3       1 <0>        -0.4984
     19 C18         0.4366   -2.7930    2.6825 C.3       1 <0>        -0.1163
     20 C19        -0.0839   -3.2311   -2.2755 C.3       1 <0>        -0.0603
     21 C20         1.3186   -3.4384   -2.8507 C.3       1 <0>        -0.1733
     22 C21         1.2337   -4.3019   -4.0828 C.2       1 <0>         0.4893
     23 O2          0.1517   -4.7135   -4.4654 O.co2     1 <0>        -0.6985
     24 O3          2.2471   -4.5890   -4.6970 O.co2     1 <0>        -0.7063
     25 H1          0.8813    1.7253   -0.2229 H         1 <0>         0.0682
     26 H2         -0.6914    1.5515   -1.0383 H         1 <0>         0.0643
     27 H3         -0.6194    1.7004    0.7340 H         1 <0>         0.0657
     28 H4         -0.2269   -0.5378   -2.1252 H         1 <0>         0.1190
     29 H5          0.2451   -4.0241    0.2857 H         1 <0>         0.1191
     30 H6         -0.3393    0.9855    2.3012 H         1 <0>         0.0808
     31 H7         -0.1349   -0.4690    3.3066 H         1 <0>         0.0814
     32 H8          2.0741   -1.2468    3.9324 H         1 <0>         0.1266
     33 H9          4.4242   -0.6399    4.3400 H         1 <0>         0.1256
     34 H10         1.5920    2.2233    1.4997 H         1 <0>         0.1269
     35 H11         5.1462    3.3011    2.0231 H         1 <0>         0.0828
     36 H12         2.9530    2.9981   -0.0781 H         1 <0>         0.0571
     37 H13         4.4105    4.0074   -0.2371 H         1 <0>         0.0580
     38 H14         4.5607    2.2365   -0.1385 H         1 <0>         0.0557
     39 H15         3.7234    5.3169    1.7767 H         1 <0>         0.0572
     40 H16         2.2659    4.3076    1.9357 H         1 <0>         0.0556
     41 H17         3.3840    4.4790    3.3100 H         1 <0>         0.0546
     42 H18         6.2468    1.1115    2.7272 H         1 <0>         0.3870
     43 H19         1.4963   -2.8006    2.9376 H         1 <0>         0.0687
     44 H20        -0.1130   -2.2217    3.4306 H         1 <0>         0.0659
     45 H21         0.0612   -3.8161    2.6587 H         1 <0>         0.0640
     46 H22        -0.5154   -4.1971   -2.0131 H         1 <0>         0.0698
     47 H23        -0.7130   -2.7421   -3.0193 H         1 <0>         0.0697
     48 H24         1.7501   -2.4724   -3.1130 H         1 <0>         0.0559
     49 H25         1.9477   -3.9274   -2.1069 H         1 <0>         0.0559
@<TRIPOS>BOND
     1    1    2 1
     2    1   25 1
     3    1   26 1
     4    1   27 1
     5    2    7 ar
     6    2    3 ar
     7    3    4 ar
     8    3   28 1
     9    4    5 ar
    10    4   20 1
    11    5    6 ar
    12    5   29 1
    13    6    7 ar
    14    6   19 1
    15    7    8 1
    16    8    9 1
    17    8   30 1
    18    8   31 1
    19    9   14 ar
    20    9   10 ar
    21   10   11 ar
    22   10   32 1
    23   11   12 ar
    24   11   33 1
    25   12   13 ar
    26   12   18 1
    27   13   14 ar
    28   13   15 1
    29   14   34 1
    30   15   16 1
    31   15   17 1
    32   15   35 1
    33   16   36 1
    34   16   37 1
    35   16   38 1
    36   17   39 1
    37   17   40 1
    38   17   41 1
    39   18   42 1
    40   19   43 1
    41   19   44 1
    42   19   45 1
    43   20   21 1
    44   20   46 1
    45   20   47 1
    46   21   22 1
    47   21   48 1
    48   21   49 1
    49   22   23 2
    50   22   24 1
@<TRIPOS>MOLECULE
CHEMBL164421
   59    61     0     0     0
SMALL
USER_CHARGES

@<TRIPOS>ATOM
      1 C1         -0.4047    1.4771    0.0172 C.3       1 <0>        -0.1153
      2 C2         -0.1887   -0.0143    0.0041 C.ar      1 <0>        -0.0598
      3 C3         -0.1799   -0.6998   -1.1941 C.ar      1 <0>        -0.1162
      4 C4          0.0197   -2.0746   -1.2060 C.ar      1 <0>         0.1536
      5 C5          0.2103   -2.7585   -0.0117 C.ar      1 <0>        -0.1336
      6 C6          0.2012   -2.0716    1.1856 C.ar      1 <0>        -0.0620
      7 C7          0.0070   -0.6974    1.1962 C.ar      1 <0>         0.0677
      8 O1          0.0033   -0.0210    2.3752 O.3       1 <0>        -0.2483
      9 C8         -1.1826    0.1239    3.0243 C.ar      1 <0>         0.1187
     10 C9         -2.3403   -0.4163    2.4829 C.ar      1 <0>        -0.1819
     11 C10        -3.5447   -0.2695    3.1425 C.ar      1 <0>        -0.1026
     12 C11        -3.5970    0.4180    4.3463 C.ar      1 <0>         0.0722
     13 C12        -2.4399    0.9580    4.8875 C.ar      1 <0>        -0.0610
     14 C13        -1.2342    0.8067    4.2305 C.ar      1 <0>        -0.1281
     15 C14        -2.4970    1.7048    6.1952 C.3       1 <0>        -0.0569
     16 C15        -1.5973    1.0098    7.2191 C.3       1 <0>        -0.1456
     17 C16        -2.0140    3.1411    5.9837 C.3       1 <0>        -0.1439
     18 O2         -4.7830    0.5629    4.9954 O.3       1 <0>        -0.4929
     19 C17         0.4074   -2.8133    2.4812 C.3       1 <0>        -0.1144
     20 N1          0.0284   -2.7698   -2.4193 N.am      1 <0>        -0.6409
     21 C18         0.5077   -2.1783   -3.5314 C.2       1 <0>         0.5326
     22 O3          1.0193   -1.0797   -3.4622 O.2       1 <0>        -0.4601
     23 C19         0.4094   -2.8743   -4.8487 C.2       1 <0>         0.4626
     24 O4         -0.1017   -3.9719   -4.9179 O.2       1 <0>        -0.4752
     25 O5          0.8879   -2.2838   -5.9590 O.3       1 <0>        -0.3135
     26 C20         0.7604   -3.0071   -7.1848 C.3       1 <0>         0.1053
     27 C21         1.3472   -2.1951   -8.3106 C.ar      1 <0>        -0.1043
     28 C22         0.5507   -1.3097   -9.0125 C.ar      1 <0>        -0.0921
     29 C23         1.0890   -0.5649  -10.0451 C.ar      1 <0>        -0.1225
     30 C24         2.4239   -0.7051  -10.3756 C.ar      1 <0>        -0.1045
     31 C25         3.2207   -1.5898   -9.6731 C.ar      1 <0>        -0.1224
     32 C26         2.6834   -2.3315   -8.6377 C.ar      1 <0>        -0.0920
     33 H1          0.5569    1.9842   -0.0615 H         1 <0>         0.0810
     34 H2         -1.0349    1.7603   -0.8258 H         1 <0>         0.0721
     35 H3         -0.8924    1.7654    0.9484 H         1 <0>         0.0707
     36 H4         -0.3284   -0.1675   -2.1220 H         1 <0>         0.1436
     37 H5          0.3652   -3.8273   -0.0201 H         1 <0>         0.1384
     38 H6         -2.2996   -0.9512    1.5456 H         1 <0>         0.1302
     39 H7         -4.4459   -0.6896    2.7209 H         1 <0>         0.1315
     40 H8         -0.3323    1.2233    4.6542 H         1 <0>         0.1359
     41 H9         -3.5232    1.7169    6.5622 H         1 <0>         0.0879
     42 H10        -0.5710    0.9977    6.8521 H         1 <0>         0.0581
     43 H11        -1.6385    1.5499    8.1649 H         1 <0>         0.0609
     44 H12        -1.9413   -0.0135    7.3697 H         1 <0>         0.0547
     45 H13        -0.9877    3.1290    5.6167 H         1 <0>         0.0573
     46 H14        -2.6550    3.6363    5.2542 H         1 <0>         0.0569
     47 H15        -2.0553    3.6813    6.9295 H         1 <0>         0.0605
     48 H16        -4.9791   -0.1488    5.6200 H         1 <0>         0.3863
     49 H17         1.4712   -2.8445    2.7166 H         1 <0>         0.0798
     50 H18        -0.1271   -2.3017    3.2817 H         1 <0>         0.0708
     51 H19         0.0271   -3.8300    2.3823 H         1 <0>         0.0722
     52 H20        -0.3106   -3.6777   -2.4605 H         1 <0>         0.4257
     53 H21         1.2927   -3.9549   -7.1046 H         1 <0>         0.0853
     54 H22        -0.2937   -3.1984   -7.3859 H         1 <0>         0.0853
     55 H23        -0.4922   -1.2002   -8.7542 H         1 <0>         0.1253
     56 H24         0.4665    0.1263  -10.5939 H         1 <0>         0.1276
     57 H25         2.8443   -0.1237  -11.1828 H         1 <0>         0.1265
     58 H26         4.2635   -1.6995   -9.9315 H         1 <0>         0.1276
     59 H27         3.3067   -3.0199   -8.0865 H         1 <0>         0.1254
@<TRIPOS>BOND
     1    1    2 1
     2    1   33 1
     3    1   34 1
     4    1   35 1
     5    2    7 ar
     6    2    3 ar
     7    3    4 ar
     8    3   36 1
     9    4    5 ar
    10    4   20 1
    11    5    6 ar
    12    5   37 1
    13    6    7 ar
    14    6   19 1
    15    7    8 1
    16    8    9 1
    17    9   14 ar
    18    9   10 ar
    19   10   11 ar
    20   10   38 1
    21   11   12 ar
    22   11   39 1
    23   12   13 ar
    24   12   18 1
    25   13   14 ar
    26   13   15 1
    27   14   40 1
    28   15   16 1
    29   15   17 1
    30   15   41 1
    31   16   42 1
    32   16   43 1
    33   16   44 1
    34   17   45 1
    35   17   46 1
    36   17   47 1
    37   18   48 1
    38   19   49 1
    39   19   50 1
    40   19   51 1
    41   20   21 am
    42   20   52 1
    43   21   22 2
    44   21   23 1
    45   23   24 2
    46   23   25 1
    47   25   26 1
    48   26   27 1
    49   26   53 1
    50   26   54 1
    51   27   32 ar
    52   27   28 ar
    53   28   29 ar
    54   28   55 1
    55   29   30 ar
    56   29   56 1
    57   30   31 ar
    58   30   57 1
    59   31   32 ar
    60   31   58 1
    61   32   59 1
@<TRIPOS>MOLECULE
CHEMBL333650
   57    60     0     0     0
SMALL
USER_CHARGES

@<TRIPOS>ATOM
      1 C1         -1.0234    1.3051    0.1204 C.3       1 <0>        -0.1155
      2 C2         -0.4798   -0.0990    0.0549 C.ar      1 <0>        -0.0662
      3 C3         -0.4765   -0.7823   -1.1444 C.ar      1 <0>        -0.0914
      4 C4          0.0246   -2.0764   -1.2047 C.ar      1 <0>         0.1676
      5 C5          0.5220   -2.6821   -0.0579 C.ar      1 <0>        -0.0977
      6 C6          0.5181   -1.9977    1.1408 C.ar      1 <0>        -0.0691
      7 C7          0.0225   -0.7026    1.1992 C.ar      1 <0>         0.0787
      8 O1          0.0245   -0.0270    2.3785 O.3       1 <0>        -0.2435
      9 C8         -1.0657   -0.1434    3.1826 C.ar      1 <0>         0.0964
     10 C9         -2.1338   -0.9385    2.7925 C.ar      1 <0>        -0.1233
     11 C10        -3.2408   -1.0571    3.6096 C.ar      1 <0>        -0.1226
     12 C11        -3.2852   -0.3809    4.8201 C.ar      1 <0>         0.1791
     13 C12        -2.2176    0.4139    5.2101 C.ar      1 <0>        -0.6706
     14 C13        -1.1077    0.5281    4.3956 C.ar      1 <0>        -0.0336
     15 S1         -2.2742    1.2727    6.7476 S.o2      1 <0>         2.6998
     16 O2         -2.6702    0.3238    7.7284 O.2       1 <0>        -0.9509
     17 O3         -1.0632    2.0097    6.8459 O.2       1 <0>        -0.9530
     18 N1         -3.4975    2.3840    6.6430 N.pl3     1 <0>        -0.9879
     19 C14        -3.2359    3.7402    6.1420 C.3       1 <0>         0.1183
     20 C15        -4.2090    4.0392    4.9972 C.3       1 <0>        -0.1355
     21 C16        -5.6435    3.8133    5.4802 C.3       1 <0>        -0.1195
     22 C17        -5.8197    2.3506    5.8944 C.3       1 <0>        -0.1323
     23 C18        -4.8661    2.0306    7.0437 C.3       1 <0>         0.1245
     24 O4         -4.3756   -0.4969    5.6241 O.3       1 <0>        -0.4947
     25 C19         1.0573   -2.6548    2.3852 C.3       1 <0>        -0.1165
     26 N2          0.0278   -2.7704   -2.4211 N.am      1 <0>        -0.4013
     27 C20         0.5135   -2.1739   -3.5242 C.2       1 <0>         0.6822
     28 O5          0.9435   -1.0389   -3.4511 O.2       1 <0>        -0.5132
     29 N3          0.5314   -2.8145   -4.7081 N.am      1 <0>        -0.6547
     30 H1          0.8854   -2.3703   -5.4943 H         1 <0>         0.4384
     31 C21         0.0575   -4.0742   -4.8016 C.2       1 <0>         0.5169
     32 O6          0.0711   -4.6601   -5.8685 O.2       1 <0>        -0.4706
     33 C22        -0.4732   -4.7285   -3.6030 C.2       1 <0>         0.0601
     34 N4         -0.4693   -4.0782   -2.4717 N.2       1 <0>        -0.1669
     35 H2         -0.2206    2.0151   -0.0778 H         1 <0>         0.0841
     36 H3         -1.8081    1.4261   -0.6264 H         1 <0>         0.0736
     37 H4         -1.4348    1.4895    1.1128 H         1 <0>         0.0710
     38 H5         -0.8637   -0.3110   -2.0357 H         1 <0>         0.1392
     39 H6          0.9114   -3.6884   -0.1040 H         1 <0>         0.1416
     40 H7         -2.0995   -1.4644    1.8498 H         1 <0>         0.1397
     41 H8         -4.0722   -1.6759    3.3060 H         1 <0>         0.1433
     42 H9         -0.2745    1.1435    4.7013 H         1 <0>         0.1575
     43 H10        -3.3845    4.4615    6.9456 H         1 <0>         0.0778
     44 H11        -2.2110    3.8034    5.7763 H         1 <0>         0.0900
     45 H12        -4.0907    5.0754    4.6804 H         1 <0>         0.0755
     46 H13        -3.9988    3.3756    4.1584 H         1 <0>         0.0653
     47 H14        -5.8450    4.4594    6.3346 H         1 <0>         0.0643
     48 H15        -6.3392    4.0490    4.6749 H         1 <0>         0.0634
     49 H16        -6.8479    2.1849    6.2162 H         1 <0>         0.0733
     50 H17        -5.5944    1.7029    5.0472 H         1 <0>         0.0719
     51 H18        -4.9165    0.9661    7.2727 H         1 <0>         0.0977
     52 H19        -5.1506    2.6094    7.9224 H         1 <0>         0.0708
     53 H20        -4.3211   -1.2250    6.2581 H         1 <0>         0.4075
     54 H21         2.1224   -2.4418    2.4762 H         1 <0>         0.0832
     55 H22         0.5330   -2.2654    3.2580 H         1 <0>         0.0711
     56 H23         0.9064   -3.7324    2.3216 H         1 <0>         0.0755
     57 H24        -0.8578   -5.7364   -3.6540 H         1 <0>         0.2312
@<TRIPOS>BOND
     1    1    2 1
     2    1   35 1
     3    1   36 1
     4    1   37 1
     5    2    7 ar
     6    2    3 ar
     7    3    4 ar
     8    3   38 1
     9    4    5 ar
    10    4   26 1
    11    5    6 ar
    12    5   39 1
    13    6    7 ar
    14    6   25 1
    15    7    8 1
    16    8    9 1
    17    9   14 ar
    18    9   10 ar
    19   10   11 ar
    20   10   40 1
    21   11   12 ar
    22   11   41 1
    23   12   13 ar
    24   12   24 1
    25   13   14 ar
    26   13   15 1
    27   14   42 1
    28   15   16 2
    29   15   17 2
    30   15   18 1
    31   18   23 1
    32   18   19 1
    33   19   20 1
    34   19   43 1
    35   19   44 1
    36   20   21 1
    37   20   45 1
    38   20   46 1
    39   21   22 1
    40   21   47 1
    41   21   48 1
    42   22   23 1
    43   22   49 1
    44   22   50 1
    45   23   51 1
    46   23   52 1
    47   24   53 1
    48   25   54 1
    49   25   55 1
    50   25   56 1
    51   26   34 1
    52   26   27 am
    53   27   28 2
    54   27   29 am
    55   29   30 1
    56   29   31 am
    57   31   32 2
    58   31   33 1
    59   33   34 2
    60   33   57 1
@<TRIPOS>MOLECULE
CHEMBL333650__1
   56    59     0     0     0
SMALL
USER_CHARGES

@<TRIPOS>ATOM
      1 C1         -1.0234    1.3051    0.1204 C.3       1 <0>        -0.1117
      2 C2         -0.4798   -0.0990    0.0549 C.ar      1 <0>        -0.0788
      3 C3         -0.4765   -0.7823   -1.1444 C.ar      1 <0>        -0.0896
      4 C4          0.0246   -2.0764   -1.2047 C.ar      1 <0>         0.1398
      5 C5          0.5220   -2.6821   -0.0579 C.ar      1 <0>        -0.0961
      6 C6          0.5181   -1.9977    1.1408 C.ar      1 <0>        -0.0812
      7 C7          0.0225   -0.7026    1.1992 C.ar      1 <0>         0.1207
      8 O1          0.0245   -0.0270    2.3785 O.3       1 <0>        -0.2649
      9 C8         -1.0657   -0.1434    3.1826 C.ar      1 <0>        -0.0410
     10 C9         -2.1338   -0.9385    2.7925 C.ar      1 <0>        -0.0924
     11 C10        -3.2408   -1.0571    3.6096 C.ar      1 <0>        -0.2235
     12 C11        -3.2852   -0.3809    4.8201 C.ar      1 <0>         0.3324
     13 C12        -2.2176    0.4139    5.2101 C.ar      1 <0>        -0.7952
     14 C13        -1.1077    0.5281    4.3956 C.ar      1 <0>         0.0067
     15 S1         -2.2742    1.2727    6.7476 S.o2      1 <0>         2.7140
     16 O2         -2.6702    0.3238    7.7284 O.2       1 <0>        -0.9637
     17 O3         -1.0632    2.0097    6.8459 O.2       1 <0>        -0.9982
     18 N1         -3.4975    2.3840    6.6430 N.pl3     1 <0>        -0.9926
     19 C14        -3.2359    3.7402    6.1420 C.3       1 <0>         0.1246
     20 C15        -4.2090    4.0392    4.9972 C.3       1 <0>        -0.1340
     21 C16        -5.6435    3.8133    5.4802 C.3       1 <0>        -0.1144
     22 C17        -5.8197    2.3506    5.8944 C.3       1 <0>        -0.1288
     23 C18        -4.8661    2.0306    7.0437 C.3       1 <0>         0.1309
     24 O4         -4.3756   -0.4969    5.6241 O.3       1 <0>        -0.6861
     25 C19         1.0573   -2.6548    2.3852 C.3       1 <0>        -0.1132
     26 N2          0.0278   -2.7704   -2.4211 N.am      1 <0>        -0.3915
     27 C20         0.5135   -2.1739   -3.5242 C.2       1 <0>         0.6793
     28 O5          0.9435   -1.0389   -3.4511 O.2       1 <0>        -0.5137
     29 N3          0.5314   -2.8145   -4.7081 N.am      1 <0>        -0.6554
     30 H1          0.8854   -2.3703   -5.4943 H         1 <0>         0.4354
     31 C21         0.0575   -4.0742   -4.8016 C.2       1 <0>         0.5198
     32 O6          0.0711   -4.6601   -5.8685 O.2       1 <0>        -0.4816
     33 C22        -0.4732   -4.7285   -3.6030 C.2       1 <0>         0.0452
     34 N4         -0.4693   -4.0782   -2.4717 N.2       1 <0>        -0.1587
     35 H2         -0.2206    2.0151   -0.0778 H         1 <0>         0.0753
     36 H3         -1.8081    1.4261   -0.6264 H         1 <0>         0.0654
     37 H4         -1.4348    1.4895    1.1128 H         1 <0>         0.0802
     38 H5         -0.8637   -0.3110   -2.0357 H         1 <0>         0.1313
     39 H6          0.9114   -3.6884   -0.1040 H         1 <0>         0.1338
     40 H7         -2.0995   -1.4644    1.8498 H         1 <0>         0.1034
     41 H8         -4.0722   -1.6759    3.3060 H         1 <0>         0.1068
     42 H9         -0.2745    1.1435    4.7013 H         1 <0>         0.1214
     43 H10        -3.3845    4.4615    6.9456 H         1 <0>         0.0620
     44 H11        -2.2110    3.8034    5.7763 H         1 <0>         0.0838
     45 H12        -4.0907    5.0754    4.6804 H         1 <0>         0.0644
     46 H13        -3.9988    3.3756    4.1584 H         1 <0>         0.0680
     47 H14        -5.8450    4.4594    6.3346 H         1 <0>         0.0556
     48 H15        -6.3392    4.0490    4.6749 H         1 <0>         0.0548
     49 H16        -6.8479    2.1849    6.2162 H         1 <0>         0.0614
     50 H17        -5.5944    1.7029    5.0472 H         1 <0>         0.0786
     51 H18        -4.9165    0.9661    7.2727 H         1 <0>         0.1121
     52 H19        -5.1506    2.6094    7.9224 H         1 <0>         0.0485
     53 H20         2.1224   -2.4418    2.4762 H         1 <0>         0.0746
     54 H21         0.5330   -2.2654    3.2580 H         1 <0>         0.0806
     55 H22         0.9064   -3.7324    2.3216 H         1 <0>         0.0675
     56 H23        -0.8578   -5.7364   -3.6540 H         1 <0>         0.2280
@<TRIPOS>BOND
     1    1    2 1
     2    1   35 1
     3    1   36 1
     4    1   37 1
     5    2    7 ar
     6    2    3 ar
     7    3    4 ar
     8    3   38 1
     9    4    5 ar
    10    4   26 1
    11    5    6 ar
    12    5   39 1
    13    6    7 ar
    14    6   25 1
    15    7    8 1
    16    8    9 1
    17    9   14 ar
    18    9   10 ar
    19   10   11 ar
    20   10   40 1
    21   11   12 ar
    22   11   41 1
    23   12   13 ar
    24   12   24 1
    25   13   14 ar
    26   13   15 1
    27   14   42 1
    28   15   16 2
    29   15   17 2
    30   15   18 1
    31   18   23 1
    32   18   19 1
    33   19   20 1
    34   19   43 1
    35   19   44 1
    36   20   21 1
    37   20   45 1
    38   20   46 1
    39   21   22 1
    40   21   47 1
    41   21   48 1
    42   22   23 1
    43   22   49 1
    44   22   50 1
    45   23   51 1
    46   23   52 1
    47   25   53 1
    48   25   54 1
    49   25   55 1
    50   26   34 1
    51   26   27 am
    52   27   28 2
    53   27   29 am
    54   29   30 1
    55   29   31 am
    56   31   32 2
    57   31   33 1
    58   33   34 2
    59   33   56 1
@<TRIPOS>MOLECULE
CHEMBL159682
   57    59     0     0     0
SMALL
USER_CHARGES

@<TRIPOS>ATOM
      1 C1          2.6701   -4.7627   -1.8765 C.3       1 <0>        -0.1538
      2 C2          1.6569   -3.8743   -1.1518 C.3       1 <0>         0.0562
      3 O1          0.3693   -4.4930   -1.1878 O.3       1 <0>        -0.3200
      4 C3         -0.6413   -3.8357   -0.5902 C.2       1 <0>         0.4628
      5 O2         -0.4365   -2.7677   -0.0535 O.2       1 <0>        -0.4757
      6 C4         -2.0148   -4.4212   -0.5879 C.2       1 <0>         0.5331
      7 O3         -2.2198   -5.4902   -1.1251 O.2       1 <0>        -0.4637
      8 N1         -3.0270   -3.7627    0.0108 N.am      1 <0>        -0.6405
      9 C5         -4.3306   -4.2624   -0.0697 C.ar      1 <0>         0.1510
     10 C6         -5.4062   -3.3873   -0.1562 C.ar      1 <0>        -0.1323
     11 C7         -6.6927   -3.8813   -0.2362 C.ar      1 <0>        -0.0619
     12 C8         -6.9118   -5.2517   -0.2301 C.ar      1 <0>         0.0663
     13 C9         -5.8379   -6.1265   -0.1433 C.ar      1 <0>        -0.0615
     14 C10        -4.5504   -5.6342   -0.0691 C.ar      1 <0>        -0.1151
     15 C11        -6.0770   -7.6144   -0.1363 C.3       1 <0>        -0.1174
     16 O4         -8.1789   -5.7374   -0.3088 O.3       1 <0>        -0.2479
     17 C12        -8.6925   -5.9837   -1.5433 C.ar      1 <0>         0.1249
     18 C13        -7.9253   -5.7444   -2.6744 C.ar      1 <0>        -0.1742
     19 C14        -8.4469   -5.9951   -3.9282 C.ar      1 <0>        -0.1008
     20 C15        -9.7381   -6.4859   -4.0570 C.ar      1 <0>         0.0865
     21 C16       -10.5052   -6.7247   -2.9266 C.ar      1 <0>        -0.1021
     22 C17        -9.9815   -6.4798   -1.6719 C.ar      1 <0>        -0.1243
     23 C18       -11.9080   -7.2573   -3.0666 C.3       1 <0>         0.2004
     24 C19       -12.8600   -6.1114   -3.2940 C.ar      1 <0>        -0.1231
     25 C20       -13.2881   -5.3466   -2.2250 C.ar      1 <0>        -0.0802
     26 C21       -14.1607   -4.2952   -2.4323 C.ar      1 <0>        -0.1519
     27 C22       -14.6063   -4.0081   -3.7114 C.ar      1 <0>         0.1018
     28 C23       -14.1769   -4.7748   -4.7814 C.ar      1 <0>        -0.1528
     29 C24       -13.3001   -5.8223   -4.5723 C.ar      1 <0>        -0.0639
     30 F1        -15.4598   -2.9808   -3.9153 F         1 <0>        -0.1385
     31 O5        -12.2752   -7.9519   -1.8730 O.3       1 <0>        -0.5446
     32 O6        -10.2517   -6.7323   -5.2917 O.3       1 <0>        -0.4918
     33 C25        -7.8596   -2.9323   -0.3295 C.3       1 <0>        -0.1174
     34 H1          3.6522   -4.2907   -1.8490 H         1 <0>         0.0855
     35 H2          2.7197   -5.7337   -1.3839 H         1 <0>         0.0703
     36 H3          2.3601   -4.8964   -2.9129 H         1 <0>         0.0702
     37 H4          1.9669   -3.7405   -0.1154 H         1 <0>         0.0755
     38 H5          1.6073   -2.9032   -1.6444 H         1 <0>         0.0752
     39 H6         -2.8512   -2.9422    0.4974 H         1 <0>         0.4264
     40 H7         -5.2359   -2.3208   -0.1606 H         1 <0>         0.1384
     41 H8         -3.7145   -6.3151   -0.0063 H         1 <0>         0.1489
     42 H9         -6.0648   -7.9892   -1.1597 H         1 <0>         0.0757
     43 H10        -5.2930   -8.1057    0.4399 H         1 <0>         0.0745
     44 H11        -7.0462   -7.8245    0.3161 H         1 <0>         0.0762
     45 H12        -6.9203   -5.3617   -2.5742 H         1 <0>         0.1321
     46 H13        -7.8497   -5.8089   -4.8086 H         1 <0>         0.1346
     47 H14       -10.5772   -6.6703   -0.7915 H         1 <0>         0.1353
     48 H15       -11.9539   -7.9414   -3.9139 H         1 <0>         0.1220
     49 H16       -12.9407   -5.5710   -1.2273 H         1 <0>         0.1286
     50 H17       -14.4953   -3.6981   -1.5969 H         1 <0>         0.1373
     51 H18       -14.5240   -4.5519   -5.7795 H         1 <0>         0.1378
     52 H19       -12.9615   -6.4177   -5.4073 H         1 <0>         0.1384
     53 H20       -12.2565   -7.4032   -1.0770 H         1 <0>         0.3750
     54 H21       -10.0898   -7.6298   -5.6130 H         1 <0>         0.3886
     55 H22        -8.0714   -2.7188   -1.3772 H         1 <0>         0.0750
     56 H23        -8.7357   -3.3871    0.1329 H         1 <0>         0.0763
     57 H24        -7.6158   -2.0046    0.1883 H         1 <0>         0.0744
@<TRIPOS>BOND
     1    1    2 1
     2    1   34 1
     3    1   35 1
     4    1   36 1
     5    2    3 1
     6    2   37 1
     7    2   38 1
     8    3    4 1
     9    4    5 2
    10    4    6 1
    11    6    7 2
    12    6    8 am
    13    8    9 1
    14    8   39 1
    15    9   14 ar
    16    9   10 ar
    17   10   11 ar
    18   10   40 1
    19   11   12 ar
    20   11   33 1
    21   12   13 ar
    22   12   16 1
    23   13   14 ar
    24   13   15 1
    25   14   41 1
    26   15   42 1
    27   15   43 1
    28   15   44 1
    29   16   17 1
    30   17   22 ar
    31   17   18 ar
    32   18   19 ar
    33   18   45 1
    34   19   20 ar
    35   19   46 1
    36   20   21 ar
    37   20   32 1
    38   21   22 ar
    39   21   23 1
    40   22   47 1
    41   23   24 1
    42   23   31 1
    43   23   48 1
    44   24   29 ar
    45   24   25 ar
    46   25   26 ar
    47   25   49 1
    48   26   27 ar
    49   26   50 1
    50   27   28 ar
    51   27   30 1
    52   28   29 ar
    53   28   51 1
    54   29   52 1
    55   31   53 1
    56   32   54 1
    57   33   55 1
    58   33   56 1
    59   33   57 1
@<TRIPOS>MOLECULE
CHEMBL159682__1
   57    59     0     0     0
SMALL
USER_CHARGES

@<TRIPOS>ATOM
      1 C1          2.6701   -4.7627   -1.8765 C.3       1 <0>        -0.1538
      2 C2          1.6569   -3.8743   -1.1518 C.3       1 <0>         0.0562
      3 O1          0.3693   -4.4930   -1.1878 O.3       1 <0>        -0.3200
      4 C3         -0.6413   -3.8357   -0.5902 C.2       1 <0>         0.4628
      5 O2         -0.4365   -2.7677   -0.0535 O.2       1 <0>        -0.4757
      6 C4         -2.0148   -4.4212   -0.5879 C.2       1 <0>         0.5331
      7 O3         -2.2198   -5.4902   -1.1251 O.2       1 <0>        -0.4638
      8 N1         -3.0270   -3.7627    0.0108 N.am      1 <0>        -0.6405
      9 C5         -4.3306   -4.2624   -0.0697 C.ar      1 <0>         0.1511
     10 C6         -5.4062   -3.3873   -0.1562 C.ar      1 <0>        -0.1321
     11 C7         -6.6927   -3.8813   -0.2362 C.ar      1 <0>        -0.0613
     12 C8         -6.9118   -5.2517   -0.2301 C.ar      1 <0>         0.0661
     13 C9         -5.8379   -6.1265   -0.1433 C.ar      1 <0>        -0.0619
     14 C10        -4.5504   -5.6342   -0.0691 C.ar      1 <0>        -0.1153
     15 C11        -6.0770   -7.6144   -0.1363 C.3       1 <0>        -0.1170
     16 O4         -8.1789   -5.7374   -0.3088 O.3       1 <0>        -0.2477
     17 C12        -8.6925   -5.9837   -1.5433 C.ar      1 <0>         0.1255
     18 C13        -7.9253   -5.7444   -2.6744 C.ar      1 <0>        -0.1742
     19 C14        -8.4469   -5.9951   -3.9282 C.ar      1 <0>        -0.1001
     20 C15        -9.7381   -6.4859   -4.0570 C.ar      1 <0>         0.0848
     21 C16       -10.5052   -6.7247   -2.9266 C.ar      1 <0>        -0.1004
     22 C17        -9.9815   -6.4798   -1.6719 C.ar      1 <0>        -0.1241
     23 C18       -11.9080   -7.2573   -3.0666 C.3       1 <0>         0.1964
     24 C19       -11.8661   -8.7595   -3.1790 C.ar      1 <0>        -0.1234
     25 C20       -11.8324   -9.5369   -2.0364 C.ar      1 <0>        -0.0793
     26 C21       -11.7944  -10.9146   -2.1382 C.ar      1 <0>        -0.1470
     27 C22       -11.7901  -11.5163   -3.3852 C.ar      1 <0>         0.1014
     28 C23       -11.8237  -10.7366   -4.5289 C.ar      1 <0>        -0.1491
     29 C24       -11.8670   -9.3592   -4.4246 C.ar      1 <0>        -0.0835
     30 F1        -11.7525  -12.8630   -3.4860 F         1 <0>        -0.1372
     31 O5        -12.6750   -6.8867   -1.9193 O.3       1 <0>        -0.5423
     32 O6        -10.2517   -6.7323   -5.2917 O.3       1 <0>        -0.4918
     33 C25        -7.8596   -2.9323   -0.3295 C.3       1 <0>        -0.1179
     34 H1          3.6522   -4.2907   -1.8490 H         1 <0>         0.0855
     35 H2          2.7197   -5.7337   -1.3839 H         1 <0>         0.0703
     36 H3          2.3601   -4.8964   -2.9129 H         1 <0>         0.0702
     37 H4          1.9669   -3.7405   -0.1154 H         1 <0>         0.0755
     38 H5          1.6073   -2.9032   -1.6444 H         1 <0>         0.0753
     39 H6         -2.8512   -2.9422    0.4974 H         1 <0>         0.4265
     40 H7         -5.2359   -2.3208   -0.1606 H         1 <0>         0.1386
     41 H8         -3.7145   -6.3151   -0.0063 H         1 <0>         0.1488
     42 H9         -6.0648   -7.9892   -1.1597 H         1 <0>         0.0753
     43 H10        -5.2930   -8.1057    0.4399 H         1 <0>         0.0744
     44 H11        -7.0462   -7.8245    0.3161 H         1 <0>         0.0755
     45 H12        -6.9203   -5.3617   -2.5742 H         1 <0>         0.1325
     46 H13        -7.8497   -5.8089   -4.8086 H         1 <0>         0.1351
     47 H14       -10.5772   -6.6703   -0.7915 H         1 <0>         0.1354
     48 H15       -12.3679   -6.8387   -3.9618 H         1 <0>         0.1294
     49 H16       -11.8355   -9.0674   -1.0638 H         1 <0>         0.1307
     50 H17       -11.7678  -11.5218   -1.2454 H         1 <0>         0.1387
     51 H18       -11.8200  -11.2048   -5.5022 H         1 <0>         0.1395
     52 H19       -11.8978   -8.7510   -5.3165 H         1 <0>         0.1381
     53 H20       -12.3231   -7.2255   -1.0848 H         1 <0>         0.3738
     54 H21       -10.0898   -7.6298   -5.6130 H         1 <0>         0.3859
     55 H22        -8.0714   -2.7188   -1.3772 H         1 <0>         0.0755
     56 H23        -8.7357   -3.3871    0.1329 H         1 <0>         0.0770
     57 H24        -7.6158   -2.0046    0.1883 H         1 <0>         0.0746
@<TRIPOS>BOND
     1    1    2 1
     2    1   34 1
     3    1   35 1
     4    1   36 1
     5    2    3 1
     6    2   37 1
     7    2   38 1
     8    3    4 1
     9    4    5 2
    10    4    6 1
    11    6    7 2
    12    6    8 am
    13    8    9 1
    14    8   39 1
    15    9   14 ar
    16    9   10 ar
    17   10   11 ar
    18   10   40 1
    19   11   12 ar
    20   11   33 1
    21   12   13 ar
    22   12   16 1
    23   13   14 ar
    24   13   15 1
    25   14   41 1
    26   15   42 1
    27   15   43 1
    28   15   44 1
    29   16   17 1
    30   17   22 ar
    31   17   18 ar
    32   18   19 ar
    33   18   45 1
    34   19   20 ar
    35   19   46 1
    36   20   21 ar
    37   20   32 1
    38   21   22 ar
    39   21   23 1
    40   22   47 1
    41   23   24 1
    42   23   31 1
    43   23   48 1
    44   24   29 ar
    45   24   25 ar
    46   25   26 ar
    47   25   49 1
    48   26   27 ar
    49   26   50 1
    50   27   28 ar
    51   27   30 1
    52   28   29 ar
    53   28   51 1
    54   29   52 1
    55   31   53 1
    56   32   54 1
    57   33   55 1
    58   33   56 1
    59   33   57 1
@<TRIPOS>MOLECULE
CHEMBL125728
   54    57     0     0     0
SMALL
USER_CHARGES

@<TRIPOS>ATOM
      1 C1         -1.0238    1.3049    0.1204 C.3       1 <0>        -0.1156
      2 C2         -0.4801   -0.0990    0.0549 C.ar      1 <0>        -0.0604
      3 C3         -0.4765   -0.7824   -1.1450 C.ar      1 <0>        -0.0873
      4 C4          0.0245   -2.0763   -1.2059 C.ar      1 <0>         0.1775
      5 C5          0.5221   -2.6827   -0.0593 C.ar      1 <0>        -0.0842
      6 C6          0.5182   -1.9984    1.1403 C.ar      1 <0>        -0.0280
      7 C7          0.0219   -0.7022    1.1988 C.ar      1 <0>         0.0907
      8 O1          0.0236   -0.0266    2.3783 O.3       1 <0>        -0.2384
      9 C8         -1.0667   -0.1432    3.1822 C.ar      1 <0>         0.0960
     10 C9         -2.1346   -0.9384    2.7919 C.ar      1 <0>        -0.1216
     11 C10        -3.2420   -1.0567    3.6085 C.ar      1 <0>        -0.1215
     12 C11        -3.2867   -0.3805    4.8190 C.ar      1 <0>         0.1816
     13 C12        -2.2195    0.4147    5.2090 C.ar      1 <0>        -0.6711
     14 C13        -1.1091    0.5283    4.3952 C.ar      1 <0>        -0.0291
     15 S1         -2.2767    1.2740    6.7462 S.o2      1 <0>         2.6998
     16 O2         -2.6727    0.3253    7.7273 O.2       1 <0>        -0.9504
     17 O3         -1.0661    2.0114    6.8446 O.2       1 <0>        -0.9526
     18 N1         -3.5003    2.3848    6.6410 N.pl3     1 <0>        -0.9879
     19 C14        -3.2391    3.7410    6.1397 C.3       1 <0>         0.1182
     20 C15        -4.2120    4.0393    4.9946 C.3       1 <0>        -0.1353
     21 C16        -5.6466    3.8131    5.4773 C.3       1 <0>        -0.1195
     22 C17        -5.8224    2.3504    5.8919 C.3       1 <0>        -0.1323
     23 C18        -4.8690    2.0311    7.0415 C.3       1 <0>         0.1243
     24 O4         -4.3771   -0.4970    5.6229 O.3       1 <0>        -0.4946
     25 Cl1         1.1392   -2.7557    2.5737 Cl        1 <0>        -0.0300
     26 N2          0.0278   -2.7696   -2.4226 N.am      1 <0>        -0.4029
     27 C19        -0.4549   -4.0239   -2.4730 C.2       1 <0>         0.6828
     28 O5         -0.8880   -4.5399   -1.4608 O.2       1 <0>        -0.5129
     29 N3         -0.4661   -4.7166   -3.6273 N.am      1 <0>        -0.6540
     30 H1         -0.8182   -5.6202   -3.6469 H         1 <0>         0.4392
     31 C20         0.0118   -4.1547   -4.7569 C.2       1 <0>         0.5167
     32 O6          0.0045   -4.7748   -5.8043 O.2       1 <0>        -0.4678
     33 C21         0.5391   -2.7887   -4.7073 C.2       1 <0>         0.0650
     34 N4          0.5281   -2.1459   -3.5718 N.2       1 <0>        -0.1662
     35 H2         -0.2210    2.0151   -0.0776 H         1 <0>         0.0883
     36 H3         -1.8084    1.4259   -0.6265 H         1 <0>         0.0782
     37 H4         -1.4354    1.4892    1.1127 H         1 <0>         0.0739
     38 H5         -0.8637   -0.3109   -2.0361 H         1 <0>         0.1493
     39 H6          0.9116   -3.6889   -0.1059 H         1 <0>         0.1503
     40 H7         -2.1000   -1.4645    1.8493 H         1 <0>         0.1375
     41 H8         -4.0734   -1.6753    3.3045 H         1 <0>         0.1440
     42 H9         -0.2758    1.1435    4.7013 H         1 <0>         0.1585
     43 H10        -3.3881    4.4625    6.9431 H         1 <0>         0.0778
     44 H11        -2.2142    3.8044    5.7743 H         1 <0>         0.0901
     45 H12        -4.0940    5.0754    4.6775 H         1 <0>         0.0755
     46 H13        -4.0014    3.3755    4.1561 H         1 <0>         0.0653
     47 H14        -5.8485    4.4594    6.3315 H         1 <0>         0.0643
     48 H15        -6.3421    4.0483    4.6718 H         1 <0>         0.0634
     49 H16        -6.8506    2.1845    6.2135 H         1 <0>         0.0733
     50 H17        -5.5966    1.7025    5.0449 H         1 <0>         0.0720
     51 H18        -4.9191    0.9667    7.2708 H         1 <0>         0.0977
     52 H19        -5.1539    2.6101    7.9200 H         1 <0>         0.0709
     53 H20        -4.3223   -1.2251    6.2570 H         1 <0>         0.4082
     54 H21         0.9268   -2.3187   -5.5990 H         1 <0>         0.2331
@<TRIPOS>BOND
     1    1    2 1
     2    1   35 1
     3    1   36 1
     4    1   37 1
     5    2    7 ar
     6    2    3 ar
     7    3    4 ar
     8    3   38 1
     9    4    5 ar
    10    4   26 1
    11    5    6 ar
    12    5   39 1
    13    6    7 ar
    14    6   25 1
    15    7    8 1
    16    8    9 1
    17    9   14 ar
    18    9   10 ar
    19   10   11 ar
    20   10   40 1
    21   11   12 ar
    22   11   41 1
    23   12   13 ar
    24   12   24 1
    25   13   14 ar
    26   13   15 1
    27   14   42 1
    28   15   16 2
    29   15   17 2
    30   15   18 1
    31   18   23 1
    32   18   19 1
    33   19   20 1
    34   19   43 1
    35   19   44 1
    36   20   21 1
    37   20   45 1
    38   20   46 1
    39   21   22 1
    40   21   47 1
    41   21   48 1
    42   22   23 1
    43   22   49 1
    44   22   50 1
    45   23   51 1
    46   23   52 1
    47   24   53 1
    48   26   34 1
    49   26   27 am
    50   27   28 2
    51   27   29 am
    52   29   30 1
    53   29   31 am
    54   31   32 2
    55   31   33 1
    56   33   34 2
    57   33   54 1
@<TRIPOS>MOLECULE
CHEMBL125728__1
   53    56     0     0     0
SMALL
USER_CHARGES

@<TRIPOS>ATOM
      1 C1         -1.0238    1.3049    0.1204 C.3       1 <0>        -0.1119
      2 C2         -0.4801   -0.0990    0.0549 C.ar      1 <0>        -0.0729
      3 C3         -0.4765   -0.7824   -1.1450 C.ar      1 <0>        -0.0867
      4 C4          0.0245   -2.0763   -1.2059 C.ar      1 <0>         0.1504
      5 C5          0.5221   -2.6827   -0.0593 C.ar      1 <0>        -0.0840
      6 C6          0.5182   -1.9984    1.1403 C.ar      1 <0>        -0.0367
      7 C7          0.0219   -0.7022    1.1988 C.ar      1 <0>         0.1317
      8 O1          0.0236   -0.0266    2.3783 O.3       1 <0>        -0.2581
      9 C8         -1.0667   -0.1432    3.1822 C.ar      1 <0>        -0.0406
     10 C9         -2.1346   -0.9384    2.7919 C.ar      1 <0>        -0.0908
     11 C10        -3.2420   -1.0567    3.6085 C.ar      1 <0>        -0.2216
     12 C11        -3.2867   -0.3805    4.8190 C.ar      1 <0>         0.3337
     13 C12        -2.2195    0.4147    5.2090 C.ar      1 <0>        -0.7952
     14 C13        -1.1091    0.5283    4.3952 C.ar      1 <0>         0.0110
     15 S1         -2.2767    1.2740    6.7462 S.o2      1 <0>         2.7140
     16 O2         -2.6727    0.3253    7.7273 O.2       1 <0>        -0.9634
     17 O3         -1.0661    2.0114    6.8446 O.2       1 <0>        -0.9979
     18 N1         -3.5003    2.3848    6.6410 N.pl3     1 <0>        -0.9927
     19 C14        -3.2391    3.7410    6.1397 C.3       1 <0>         0.1246
     20 C15        -4.2120    4.0393    4.9946 C.3       1 <0>        -0.1338
     21 C16        -5.6466    3.8131    5.4773 C.3       1 <0>        -0.1144
     22 C17        -5.8224    2.3504    5.8919 C.3       1 <0>        -0.1289
     23 C18        -4.8690    2.0311    7.0415 C.3       1 <0>         0.1308
     24 O4         -4.3771   -0.4970    5.6229 O.3       1 <0>        -0.6853
     25 Cl1         1.1392   -2.7557    2.5737 Cl        1 <0>        -0.0347
     26 N2          0.0278   -2.7696   -2.4226 N.am      1 <0>        -0.3937
     27 C19        -0.4549   -4.0239   -2.4730 C.2       1 <0>         0.6783
     28 O5         -0.8880   -4.5399   -1.4608 O.2       1 <0>        -0.5076
     29 N3         -0.4661   -4.7166   -3.6273 N.am      1 <0>        -0.6544
     30 H1         -0.8182   -5.6202   -3.6469 H         1 <0>         0.4369
     31 C20         0.0118   -4.1547   -4.7569 C.2       1 <0>         0.5194
     32 O6          0.0045   -4.7748   -5.8043 O.2       1 <0>        -0.4795
     33 C21         0.5391   -2.7887   -4.7073 C.2       1 <0>         0.0498
     34 N4          0.5281   -2.1459   -3.5718 N.2       1 <0>        -0.1600
     35 H2         -0.2210    2.0151   -0.0776 H         1 <0>         0.0794
     36 H3         -1.8084    1.4259   -0.6265 H         1 <0>         0.0699
     37 H4         -1.4354    1.4892    1.1127 H         1 <0>         0.0831
     38 H5         -0.8637   -0.3109   -2.0361 H         1 <0>         0.1413
     39 H6          0.9116   -3.6889   -0.1059 H         1 <0>         0.1424
     40 H7         -2.1000   -1.4645    1.8493 H         1 <0>         0.1007
     41 H8         -4.0734   -1.6753    3.3045 H         1 <0>         0.1072
     42 H9         -0.2758    1.1435    4.7013 H         1 <0>         0.1221
     43 H10        -3.3881    4.4625    6.9431 H         1 <0>         0.0619
     44 H11        -2.2142    3.8044    5.7743 H         1 <0>         0.0839
     45 H12        -4.0940    5.0754    4.6775 H         1 <0>         0.0643
     46 H13        -4.0014    3.3755    4.1561 H         1 <0>         0.0681
     47 H14        -5.8485    4.4594    6.3315 H         1 <0>         0.0556
     48 H15        -6.3421    4.0483    4.6718 H         1 <0>         0.0548
     49 H16        -6.8506    2.1845    6.2135 H         1 <0>         0.0614
     50 H17        -5.5966    1.7025    5.0449 H         1 <0>         0.0787
     51 H18        -4.9191    0.9667    7.2708 H         1 <0>         0.1121
     52 H19        -5.1539    2.6101    7.9200 H         1 <0>         0.0485
     53 H20         0.9268   -2.3187   -5.5990 H         1 <0>         0.2292
@<TRIPOS>BOND
     1    1    2 1
     2    1   35 1
     3    1   36 1
     4    1   37 1
     5    2    7 ar
     6    2    3 ar
     7    3    4 ar
     8    3   38 1
     9    4    5 ar
    10    4   26 1
    11    5    6 ar
    12    5   39 1
    13    6    7 ar
    14    6   25 1
    15    7    8 1
    16    8    9 1
    17    9   14 ar
    18    9   10 ar
    19   10   11 ar
    20   10   40 1
    21   11   12 ar
    22   11   41 1
    23   12   13 ar
    24   12   24 1
    25   13   14 ar
    26   13   15 1
    27   14   42 1
    28   15   16 2
    29   15   17 2
    30   15   18 1
    31   18   23 1
    32   18   19 1
    33   19   20 1
    34   19   43 1
    35   19   44 1
    36   20   21 1
    37   20   45 1
    38   20   46 1
    39   21   22 1
    40   21   47 1
    41   21   48 1
    42   22   23 1
    43   22   49 1
    44   22   50 1
    45   23   51 1
    46   23   52 1
    47   26   34 1
    48   26   27 am
    49   27   28 2
    50   27   29 am
    51   29   30 1
    52   29   31 am
    53   31   32 2
    54   31   33 1
    55   33   34 2
    56   33   53 1
@<TRIPOS>MOLECULE
CHEMBL125728__2
   53    56     0     0     0
SMALL
USER_CHARGES

@<TRIPOS>ATOM
      1 C1         -1.0277    1.3034    0.1212 C.3       1 <0>        -0.1095
      2 C2         -0.4819   -0.0998    0.0553 C.ar      1 <0>        -0.0654
      3 C3         -0.4784   -0.7831   -1.1444 C.ar      1 <0>        -0.0992
      4 C4          0.0245   -2.0764   -1.2057 C.ar      1 <0>         0.1928
      5 C5          0.5240   -2.6821   -0.0593 C.ar      1 <0>        -0.0824
      6 C6          0.5201   -1.9979    1.1401 C.ar      1 <0>        -0.0255
      7 C7          0.0219   -0.7023    1.1989 C.ar      1 <0>         0.0661
      8 O1          0.0236   -0.0267    2.3783 O.3       1 <0>        -0.2372
      9 C8         -1.0658   -0.1448    3.1831 C.ar      1 <0>         0.1026
     10 C9         -2.1330   -0.9416    2.7937 C.ar      1 <0>        -0.1189
     11 C10        -3.2395   -1.0614    3.6112 C.ar      1 <0>        -0.1200
     12 C11        -3.2842   -0.3853    4.8217 C.ar      1 <0>         0.1738
     13 C12        -2.2178    0.4115    5.2108 C.ar      1 <0>        -0.6723
     14 C13        -1.1082    0.5267    4.3960 C.ar      1 <0>        -0.0356
     15 S1         -2.2753    1.2711    6.7478 S.o2      1 <0>         2.7021
     16 O2         -2.6694    0.3222    7.7294 O.2       1 <0>        -0.9535
     17 O3         -1.0655    2.0102    6.8452 O.2       1 <0>        -0.9553
     18 N1         -3.5004    2.3803    6.6430 N.pl3     1 <0>        -0.9890
     19 C14        -3.2414    3.7367    6.1411 C.3       1 <0>         0.1192
     20 C15        -4.2153    4.0333    4.9964 C.3       1 <0>        -0.1363
     21 C16        -5.6493    3.8053    5.4801 C.3       1 <0>        -0.1182
     22 C17        -5.8229    2.3425    5.8953 C.3       1 <0>        -0.1332
     23 C18        -4.8684    2.0249    7.0444 C.3       1 <0>         0.1255
     24 O4         -4.3738   -0.5034    5.6265 O.3       1 <0>        -0.4960
     25 Cl1         1.1434   -2.7541    2.5730 Cl        1 <0>        -0.0462
     26 N2          0.0278   -2.7694   -2.4218 N.am      1 <0>        -0.3712
     27 C19        -0.4561   -4.0237   -2.4665 C.2       1 <0>         0.6168
     28 O5         -0.8908   -4.5418   -1.4511 O.2       1 <0>        -0.5715
     29 N3         -0.4645   -4.7060   -3.6153 N.2       1 <0>        -0.6253
     30 C20         0.0110   -4.1307   -4.7113 C.2       1 <0>         0.4334
     31 O6          0.0168   -4.7931   -5.8898 O.3       1 <0>        -0.6467
     32 C21         0.5108   -2.8130   -4.6242 C.2       1 <0>         0.0028
     33 N4          0.4887   -2.1916   -3.4751 N.2       1 <0>        -0.2201
     34 H1         -0.2261    2.0147   -0.0775 H         1 <0>         0.0824
     35 H2         -1.8131    1.4232   -0.6250 H         1 <0>         0.0745
     36 H3         -1.4387    1.4871    1.1139 H         1 <0>         0.0683
     37 H4         -0.8670   -0.3121   -2.0353 H         1 <0>         0.1443
     38 H5          0.9149   -3.6878   -0.1062 H         1 <0>         0.1500
     39 H6         -2.0984   -1.4677    1.8511 H         1 <0>         0.1416
     40 H7         -4.0703   -1.6813    3.3079 H         1 <0>         0.1432
     41 H8         -0.2756    1.1431    4.7014 H         1 <0>         0.1561
     42 H9         -3.3908    4.4582    6.9443 H         1 <0>         0.0756
     43 H10        -2.2167    3.8013    5.7750 H         1 <0>         0.0902
     44 H11        -4.0989    5.0695    4.6790 H         1 <0>         0.0745
     45 H12        -4.0043    3.3695    4.1580 H         1 <0>         0.0674
     46 H13        -5.8515    4.4516    6.3342 H         1 <0>         0.0625
     47 H14        -6.3456    4.0393    4.6749 H         1 <0>         0.0629
     48 H15        -6.8507    2.1754    6.2175 H         1 <0>         0.0720
     49 H16        -5.5968    1.6947    5.0484 H         1 <0>         0.0740
     50 H17        -4.9169    0.9605    7.2741 H         1 <0>         0.0978
     51 H18        -5.1535    2.6037    7.9229 H         1 <0>         0.0685
     52 H19        -4.3173   -1.2314    6.2606 H         1 <0>         0.4052
     53 H20         0.9042   -2.3210   -5.5015 H         1 <0>         0.1828
@<TRIPOS>BOND
     1    1    2 1
     2    1   34 1
     3    1   35 1
     4    1   36 1
     5    2    7 ar
     6    2    3 ar
     7    3    4 ar
     8    3   37 1
     9    4    5 ar
    10    4   26 1
    11    5    6 ar
    12    5   38 1
    13    6    7 ar
    14    6   25 1
    15    7    8 1
    16    8    9 1
    17    9   14 ar
    18    9   10 ar
    19   10   11 ar
    20   10   39 1
    21   11   12 ar
    22   11   40 1
    23   12   13 ar
    24   12   24 1
    25   13   14 ar
    26   13   15 1
    27   14   41 1
    28   15   16 2
    29   15   17 2
    30   15   18 1
    31   18   23 1
    32   18   19 1
    33   19   20 1
    34   19   42 1
    35   19   43 1
    36   20   21 1
    37   20   44 1
    38   20   45 1
    39   21   22 1
    40   21   46 1
    41   21   47 1
    42   22   23 1
    43   22   48 1
    44   22   49 1
    45   23   50 1
    46   23   51 1
    47   24   52 1
    48   26   33 1
    49   26   27 am
    50   27   28 2
    51   27   29 1
    52   29   30 2
    53   30   31 1
    54   30   32 1
    55   32   33 2
    56   32   53 1
@<TRIPOS>MOLECULE
CHEMBL192142
   37    38     0     0     0
SMALL
USER_CHARGES

@<TRIPOS>ATOM
      1 C1         -0.0167    1.3782    0.0096 C.ar      1 <0>        -0.0613
      2 C2          1.1704    2.0870    0.0021 C.ar      1 <0>        -0.0107
      3 C3          2.3791    1.4160   -0.0130 C.ar      1 <0>        -0.0612
      4 C4          2.4039    0.0338   -0.0211 C.ar      1 <0>        -0.0990
      5 C5          1.2139   -0.6802   -0.0135 C.ar      1 <0>         0.1255
      6 C6          0.0021   -0.0041    0.0020 C.ar      1 <0>        -0.0986
      7 Br1        -1.6220   -0.9726    0.0129 Br        1 <0>        -0.0428
      8 O1          1.2353   -2.0393   -0.0219 O.3       1 <0>        -0.3154
      9 C7          1.2581   -2.6956    1.2473 C.3       1 <0>         0.0680
     10 C8          1.2799   -4.2110    1.0375 C.3       1 <0>        -0.0785
     11 C9         -0.0271   -4.6533    0.3766 C.3       1 <0>        -0.1111
     12 C10        -0.0053   -6.1687    0.1668 C.3       1 <0>        -0.1191
     13 C11         0.1448   -6.8686    1.5190 C.3       1 <0>        -0.1204
     14 C12         1.4519   -6.4264    2.1799 C.3       1 <0>        -0.1157
     15 C13         1.4300   -4.9110    2.3897 C.3       1 <0>        -0.1138
     16 Br2         4.0576   -0.8830   -0.0430 Br        1 <0>        -0.0434
     17 C14         1.1467    3.5938    0.0099 C.3       1 <0>        -0.1602
     18 C15         1.1520    4.0889    1.4332 C.2       1 <0>         0.4975
     19 O2          1.1731    3.2921    2.3558 O.co2     1 <0>        -0.6854
     20 O3          1.1353    5.2863    1.6621 O.co2     1 <0>        -0.6959
     21 H1         -0.9594    1.9048    0.0259 H         1 <0>         0.1371
     22 H2          3.3049    1.9722   -0.0189 H         1 <0>         0.1371
     23 H3          2.1488   -2.3921    1.7973 H         1 <0>         0.0556
     24 H4          0.3692   -2.4202    1.8148 H         1 <0>         0.0561
     25 H5          2.1198   -4.4769    0.3955 H         1 <0>         0.0797
     26 H6         -0.8670   -4.3874    1.0185 H         1 <0>         0.0604
     27 H7         -0.1341   -4.1547   -0.5868 H         1 <0>         0.0720
     28 H8         -0.9365   -6.4838   -0.3041 H         1 <0>         0.0591
     29 H9          0.8345   -6.4346   -0.4752 H         1 <0>         0.0603
     30 H10        -0.6951   -6.6028    2.1609 H         1 <0>         0.0606
     31 H11         0.1604   -7.9482    1.3695 H         1 <0>         0.0578
     32 H12         1.5588   -6.9250    3.1432 H         1 <0>         0.0611
     33 H13         2.2917   -6.6922    1.5380 H         1 <0>         0.0616
     34 H14         2.3612   -4.5959    2.8605 H         1 <0>         0.0643
     35 H15         0.5902   -4.6451    3.0316 H         1 <0>         0.0646
     36 H16         2.0260    3.9737   -0.5103 H         1 <0>         0.0771
     37 H17         0.2463    3.9456   -0.4938 H         1 <0>         0.0771
@<TRIPOS>BOND
     1    1    6 ar
     2    1    2 ar
     3    1   21 1
     4    2    3 ar
     5    2   17 1
     6    3    4 ar
     7    3   22 1
     8    4    5 ar
     9    4   16 1
    10    5    6 ar
    11    5    8 1
    12    6    7 1
    13    8    9 1
    14    9   10 1
    15    9   23 1
    16    9   24 1
    17   10   15 1
    18   10   11 1
    19   10   25 1
    20   11   12 1
    21   11   26 1
    22   11   27 1
    23   12   13 1
    24   12   28 1
    25   12   29 1
    26   13   14 1
    27   13   30 1
    28   13   31 1
    29   14   15 1
    30   14   32 1
    31   14   33 1
    32   15   34 1
    33   15   35 1
    34   17   18 1
    35   17   36 1
    36   17   37 1
    37   18   19 2
    38   18   20 1
@<TRIPOS>MOLECULE
CHEMBL160203
   53    55     0     0     0
SMALL
USER_CHARGES

@<TRIPOS>ATOM
      1 C1         -0.0187    1.5258    0.0104 C.3       1 <0>        -0.1429
      2 C2          0.0021   -0.0041    0.0020 C.3       1 <0>        -0.0538
      3 C3          0.7421   -0.5109    1.2415 C.3       1 <0>        -0.1451
      4 C4         -1.4117   -0.5257    0.0127 C.ar      1 <0>        -0.0649
      5 C5         -2.2585   -0.2045    1.0558 C.ar      1 <0>        -0.1303
      6 C6         -3.5599   -0.6846    1.0656 C.ar      1 <0>         0.1300
      7 C7         -4.0108   -1.4875    0.0277 C.ar      1 <0>        -0.1773
      8 C8         -3.1641   -1.8084   -1.0149 C.ar      1 <0>        -0.1011
      9 C9         -1.8643   -1.3235   -1.0275 C.ar      1 <0>         0.0622
     10 O1         -1.0324   -1.6350   -2.0569 O.3       1 <0>        -0.4944
     11 O2         -4.3932   -0.3689    2.0923 O.3       1 <0>        -0.2317
     12 C10        -5.6607   -0.8617    2.0607 C.ar      1 <0>         0.0034
     13 C11        -6.6711   -0.1383    1.4426 C.ar      1 <0>         0.0255
     14 C12        -7.9590   -0.6389    1.4099 C.ar      1 <0>        -0.1910
     15 C13        -8.2419   -1.8659    1.9954 C.ar      1 <0>         0.2819
     16 C14        -7.2307   -2.5894    2.6137 C.ar      1 <0>        -0.1755
     17 C15        -5.9420   -2.0905    2.6415 C.ar      1 <0>         0.0269
     18 Cl1        -4.6763   -2.9983    3.4081 Cl        1 <0>        -0.0499
     19 N1         -9.5456   -2.3728    1.9629 N.pl3     1 <0>        -0.6875
     20 C16        -9.8439   -3.6672    2.5807 C.3       1 <0>         0.0807
     21 C17       -11.0786   -4.2777    1.9147 C.3       1 <0>        -0.0759
     22 C18       -10.7705   -4.5861    0.4721 C.ar      1 <0>        -0.0673
     23 C19       -10.9959   -3.6316   -0.5021 C.ar      1 <0>        -0.1152
     24 C20       -10.7133   -3.9144   -1.8253 C.ar      1 <0>        -0.1188
     25 C21       -10.2048   -5.1515   -2.1744 C.ar      1 <0>        -0.1324
     26 C22        -9.9786   -6.1057   -1.2001 C.ar      1 <0>        -0.1185
     27 C23       -10.2572   -5.8214    0.1237 C.ar      1 <0>        -0.1173
     28 C24       -10.1108   -3.4724    4.0510 C.2       1 <0>         0.4834
     29 O3        -10.2376   -2.3475    4.5038 O.co2     1 <0>        -0.6755
     30 O4        -10.1999   -4.4398    4.7878 O.co2     1 <0>        -0.6914
     31 Cl2        -6.3174    1.3958    0.7111 Cl        1 <0>        -0.0530
     32 H1          1.0039    1.9031    0.0027 H         1 <0>         0.0569
     33 H2         -0.5459    1.8868   -0.8726 H         1 <0>         0.0560
     34 H3         -0.5289    1.8773    0.9072 H         1 <0>         0.0579
     35 H4          0.5123   -0.3556   -0.8948 H         1 <0>         0.0850
     36 H5          0.7568   -1.6008    1.2356 H         1 <0>         0.0543
     37 H6          1.7647   -0.1336    1.2338 H         1 <0>         0.0574
     38 H7          0.2319   -0.1594    2.1383 H         1 <0>         0.0589
     39 H8         -1.9073    0.4202    1.8638 H         1 <0>         0.1331
     40 H9         -5.0239   -1.8617    0.0354 H         1 <0>         0.1297
     41 H10        -3.5149   -2.4336   -1.8226 H         1 <0>         0.1283
     42 H11        -0.5228   -2.4453   -1.9194 H         1 <0>         0.3814
     43 H12        -8.7453   -0.0758    0.9292 H         1 <0>         0.1397
     44 H13        -7.4504   -3.5435    3.0696 H         1 <0>         0.1444
     45 H14       -10.2519   -1.8671    1.5312 H         1 <0>         0.3978
     46 H15        -8.9931   -4.3362    2.4514 H         1 <0>         0.0787
     47 H16       -11.3533   -5.1970    2.4321 H         1 <0>         0.0935
     48 H17       -11.9064   -3.5705    1.9663 H         1 <0>         0.0738
     49 H18       -11.3931   -2.6650   -0.2294 H         1 <0>         0.1165
     50 H19       -10.8900   -3.1689   -2.5865 H         1 <0>         0.1172
     51 H20        -9.9847   -5.3728   -3.2083 H         1 <0>         0.1159
     52 H21        -9.5817   -7.0724   -1.4728 H         1 <0>         0.1179
     53 H22       -10.0770   -6.5656    0.8854 H         1 <0>         0.1225
@<TRIPOS>BOND
     1    1    2 1
     2    1   32 1
     3    1   33 1
     4    1   34 1
     5    2    3 1
     6    2    4 1
     7    2   35 1
     8    3   36 1
     9    3   37 1
    10    3   38 1
    11    4    9 ar
    12    4    5 ar
    13    5    6 ar
    14    5   39 1
    15    6    7 ar
    16    6   11 1
    17    7    8 ar
    18    7   40 1
    19    8    9 ar
    20    8   41 1
    21    9   10 1
    22   10   42 1
    23   11   12 1
    24   12   17 ar
    25   12   13 ar
    26   13   14 ar
    27   13   31 1
    28   14   15 ar
    29   14   43 1
    30   15   16 ar
    31   15   19 1
    32   16   17 ar
    33   16   44 1
    34   17   18 1
    35   19   20 1
    36   19   45 1
    37   20   21 1
    38   20   28 1
    39   20   46 1
    40   21   22 1
    41   21   47 1
    42   21   48 1
    43   22   27 ar
    44   22   23 ar
    45   23   24 ar
    46   23   49 1
    47   24   25 ar
    48   24   50 1
    49   25   26 ar
    50   25   51 1
    51   26   27 ar
    52   26   52 1
    53   27   53 1
    54   28   29 2
    55   28   30 1
@<TRIPOS>MOLECULE
CHEMBL160203__1
   53    55     0     0     0
SMALL
USER_CHARGES

@<TRIPOS>ATOM
      1 C1         -0.0187    1.5258    0.0104 C.3       1 <0>        -0.1424
      2 C2          0.0021   -0.0041    0.0020 C.3       1 <0>        -0.0535
      3 C3          0.7421   -0.5109    1.2415 C.3       1 <0>        -0.1446
      4 C4         -1.4117   -0.5257    0.0127 C.ar      1 <0>        -0.0670
      5 C5         -2.2585   -0.2045    1.0558 C.ar      1 <0>        -0.1301
      6 C6         -3.5599   -0.6846    1.0656 C.ar      1 <0>         0.1272
      7 C7         -4.0108   -1.4875    0.0277 C.ar      1 <0>        -0.1750
      8 C8         -3.1641   -1.8084   -1.0149 C.ar      1 <0>        -0.0997
      9 C9         -1.8643   -1.3235   -1.0275 C.ar      1 <0>         0.0640
     10 O1         -1.0324   -1.6350   -2.0569 O.3       1 <0>        -0.4944
     11 O2         -4.3932   -0.3689    2.0923 O.3       1 <0>        -0.2334
     12 C10        -5.6607   -0.8617    2.0607 C.ar      1 <0>         0.0045
     13 C11        -6.6711   -0.1383    1.4426 C.ar      1 <0>         0.0246
     14 C12        -7.9590   -0.6389    1.4099 C.ar      1 <0>        -0.1904
     15 C13        -8.2419   -1.8659    1.9954 C.ar      1 <0>         0.2751
     16 C14        -7.2307   -2.5894    2.6137 C.ar      1 <0>        -0.1775
     17 C15        -5.9420   -2.0905    2.6415 C.ar      1 <0>         0.0268
     18 Cl1        -4.6763   -2.9983    3.4081 Cl        1 <0>        -0.0486
     19 N1         -9.5456   -2.3728    1.9629 N.pl3     1 <0>        -0.6889
     20 C16        -9.8439   -3.6672    2.5807 C.3       1 <0>         0.0817
     21 C17       -11.3227   -3.7178    2.9699 C.3       1 <0>        -0.0769
     22 C18       -11.5958   -2.6928    4.0403 C.ar      1 <0>        -0.0675
     23 C19       -11.4659   -3.0343    5.3736 C.ar      1 <0>        -0.1173
     24 C20       -11.7164   -2.0940    6.3554 C.ar      1 <0>        -0.1185
     25 C21       -12.0963   -0.8122    6.0041 C.ar      1 <0>        -0.1320
     26 C22       -12.2253   -0.4705    4.6708 C.ar      1 <0>        -0.1189
     27 C23       -11.9706   -1.4095    3.6889 C.ar      1 <0>        -0.1147
     28 C24        -9.5442   -4.7724    1.6010 C.2       1 <0>         0.4853
     29 O3         -9.1899   -5.8665    2.0059 O.co2     1 <0>        -0.6898
     30 O4         -9.6560   -4.5724    0.4035 O.co2     1 <0>        -0.6793
     31 Cl2        -6.3174    1.3958    0.7111 Cl        1 <0>        -0.0524
     32 H1          1.0039    1.9031    0.0027 H         1 <0>         0.0565
     33 H2         -0.5459    1.8868   -0.8726 H         1 <0>         0.0560
     34 H3         -0.5289    1.8773    0.9072 H         1 <0>         0.0573
     35 H4          0.5123   -0.3556   -0.8948 H         1 <0>         0.0852
     36 H5          0.7568   -1.6008    1.2356 H         1 <0>         0.0545
     37 H6          1.7647   -0.1336    1.2338 H         1 <0>         0.0570
     38 H7          0.2319   -0.1594    2.1383 H         1 <0>         0.0582
     39 H8         -1.9073    0.4202    1.8638 H         1 <0>         0.1323
     40 H9         -5.0239   -1.8617    0.0354 H         1 <0>         0.1313
     41 H10        -3.5149   -2.4336   -1.8226 H         1 <0>         0.1304
     42 H11        -0.5228   -2.4453   -1.9194 H         1 <0>         0.3819
     43 H12        -8.7453   -0.0758    0.9292 H         1 <0>         0.1402
     44 H13        -7.4504   -3.5435    3.0696 H         1 <0>         0.1482
     45 H14       -10.2519   -1.8671    1.5312 H         1 <0>         0.3990
     46 H15        -9.2291   -3.7948    3.4717 H         1 <0>         0.0786
     47 H16       -11.9362   -3.5021    2.0952 H         1 <0>         0.0771
     48 H17       -11.5651   -4.7111    3.3477 H         1 <0>         0.0892
     49 H18       -11.1691   -4.0358    5.6480 H         1 <0>         0.1223
     50 H19       -11.6157   -2.3610    7.3970 H         1 <0>         0.1181
     51 H20       -12.2927   -0.0778    6.7712 H         1 <0>         0.1161
     52 H21       -12.5224    0.5309    4.3964 H         1 <0>         0.1174
     53 H22       -12.0677   -1.1415    2.6472 H         1 <0>         0.1168
@<TRIPOS>BOND
     1    1    2 1
     2    1   32 1
     3    1   33 1
     4    1   34 1
     5    2    3 1
     6    2    4 1
     7    2   35 1
     8    3   36 1
     9    3   37 1
    10    3   38 1
    11    4    9 ar
    12    4    5 ar
    13    5    6 ar
    14    5   39 1
    15    6    7 ar
    16    6   11 1
    17    7    8 ar
    18    7   40 1
    19    8    9 ar
    20    8   41 1
    21    9   10 1
    22   10   42 1
    23   11   12 1
    24   12   17 ar
    25   12   13 ar
    26   13   14 ar
    27   13   31 1
    28   14   15 ar
    29   14   43 1
    30   15   16 ar
    31   15   19 1
    32   16   17 ar
    33   16   44 1
    34   17   18 1
    35   19   20 1
    36   19   45 1
    37   20   21 1
    38   20   28 1
    39   20   46 1
    40   21   22 1
    41   21   47 1
    42   21   48 1
    43   22   27 ar
    44   22   23 ar
    45   23   24 ar
    46   23   49 1
    47   24   25 ar
    48   24   50 1
    49   25   26 ar
    50   25   51 1
    51   26   27 ar
    52   26   52 1
    53   27   53 1
    54   28   29 2
    55   28   30 1
@<TRIPOS>MOLECULE
CHEMBL163324
   43    45     0     0     0
SMALL
USER_CHARGES

@<TRIPOS>ATOM
      1 C1         -0.6466    1.3463    0.2399 C.ar      1 <0>        -0.1108
      2 C2          0.4312    2.2115    0.2500 C.ar      1 <0>        -0.1080
      3 C3          1.7196    1.7119    0.1817 C.ar      1 <0>        -0.0391
      4 C4          1.9282    0.3464    0.1034 C.ar      1 <0>        -0.1063
      5 C5          0.8496   -0.5177    0.0934 C.ar      1 <0>        -0.0999
      6 C6         -0.4375   -0.0179    0.1615 C.ar      1 <0>        -0.0673
      7 C7         -1.6131   -0.9607    0.1510 C.3       1 <0>        -0.0385
      8 C8         -2.0519   -1.2008   -1.2706 C.ar      1 <0>        -0.0683
      9 C9         -1.6721   -2.3566   -1.9247 C.ar      1 <0>        -0.1248
     10 C10        -2.0763   -2.5778   -3.2331 C.ar      1 <0>         0.1263
     11 C11        -2.8621   -1.6378   -3.8846 C.ar      1 <0>        -0.1730
     12 C12        -3.2416   -0.4824   -3.2303 C.ar      1 <0>        -0.0990
     13 C13        -2.8416   -0.2639   -1.9201 C.ar      1 <0>         0.0750
     14 O1         -3.2197    0.8715   -1.2742 O.3       1 <0>        -0.4924
     15 O2         -1.7023   -3.7151   -3.8772 O.3       1 <0>        -0.2357
     16 C14        -2.1214   -3.8902   -5.1588 C.ar      1 <0>         0.0573
     17 C15        -3.3289   -4.5265   -5.4133 C.ar      1 <0>        -0.0071
     18 C16        -3.7552   -4.7047   -6.7153 C.ar      1 <0>        -0.1095
     19 C17        -2.9755   -4.2465   -7.7701 C.ar      1 <0>         0.2006
     20 C18        -1.7675   -3.6093   -7.5149 C.ar      1 <0>        -0.1385
     21 C19        -1.3444   -3.4274   -6.2124 C.ar      1 <0>        -0.0077
     22 Cl1         0.1619   -2.6255   -5.8932 Cl        1 <0>        -0.0412
     23 N1         -3.4062   -4.4269   -9.0876 N.am      1 <0>        -0.6607
     24 C20        -4.7220   -4.3918   -9.3773 C.2       1 <0>         0.4531
     25 O3         -5.5261   -4.1091   -8.5135 O.2       1 <0>        -0.5156
     26 C21        -5.1909   -4.7014  -10.7630 C.2       1 <0>         0.5012
     27 O4         -6.3824   -4.6696  -11.0253 O.co2     1 <0>        -0.6319
     28 O5         -4.3822   -4.9857  -11.6317 O.co2     1 <0>        -0.6613
     29 Cl2        -4.3030   -5.0990   -4.0952 Cl        1 <0>        -0.0380
     30 Cl3         3.0739    2.7980    0.1937 Cl        1 <0>        -0.0734
     31 H1         -1.6522    1.7360    0.2977 H         1 <0>         0.1369
     32 H2          0.2678    3.2773    0.3108 H         1 <0>         0.1337
     33 H3          2.9337   -0.0441    0.0497 H         1 <0>         0.1332
     34 H4          1.0123   -1.5836    0.0319 H         1 <0>         0.1331
     35 H5         -1.3236   -1.9076    0.6067 H         1 <0>         0.0871
     36 H6         -2.4356   -0.5221    0.7160 H         1 <0>         0.0941
     37 H7         -1.0602   -3.0880   -1.4177 H         1 <0>         0.1361
     38 H8         -3.1766   -1.8097   -4.9034 H         1 <0>         0.1305
     39 H9         -3.8529    0.2493   -3.7375 H         1 <0>         0.1330
     40 H10        -2.6029    1.6086   -1.3809 H         1 <0>         0.3804
     41 H11        -4.6941   -5.2003   -6.9131 H         1 <0>         0.1605
     42 H12        -1.1611   -3.2530   -8.3345 H         1 <0>         0.1516
     43 H13        -2.7580   -4.5773   -9.7934 H         1 <0>         0.4246
@<TRIPOS>BOND
     1    1    6 ar
     2    1    2 ar
     3    1   31 1
     4    2    3 ar
     5    2   32 1
     6    3    4 ar
     7    3   30 1
     8    4    5 ar
     9    4   33 1
    10    5    6 ar
    11    5   34 1
    12    6    7 1
    13    7    8 1
    14    7   35 1
    15    7   36 1
    16    8   13 ar
    17    8    9 ar
    18    9   10 ar
    19    9   37 1
    20   10   11 ar
    21   10   15 1
    22   11   12 ar
    23   11   38 1
    24   12   13 ar
    25   12   39 1
    26   13   14 1
    27   14   40 1
    28   15   16 1
    29   16   21 ar
    30   16   17 ar
    31   17   18 ar
    32   17   29 1
    33   18   19 ar
    34   18   41 1
    35   19   20 ar
    36   19   23 1
    37   20   21 ar
    38   20   42 1
    39   21   22 1
    40   23   24 am
    41   23   43 1
    42   24   25 2
    43   24   26 1
    44   26   27 2
    45   26   28 1
@<TRIPOS>MOLECULE
CHEMBL180952
   57    59     0     0     0
SMALL
USER_CHARGES

@<TRIPOS>ATOM
      1 C1          2.6701   -4.7628   -1.8763 C.3       1 <0>        -0.1535
      2 C2          1.6569   -3.8743   -1.1517 C.3       1 <0>         0.0561
      3 O1          0.3693   -4.4931   -1.1877 O.3       1 <0>        -0.3206
      4 C3         -0.6413   -3.8357   -0.5902 C.2       1 <0>         0.4625
      5 O2         -0.4365   -2.7676   -0.0537 O.2       1 <0>        -0.4780
      6 C4         -2.0150   -4.4213   -0.5877 C.2       1 <0>         0.5308
      7 O3         -2.2199   -5.4904   -1.1247 O.2       1 <0>        -0.4654
      8 N1         -3.0272   -3.7628    0.0108 N.am      1 <0>        -0.6389
      9 C5         -4.3296   -4.2620   -0.0697 C.ar      1 <0>         0.1363
     10 C6         -5.4062   -3.3880   -0.1562 C.ar      1 <0>        -0.1392
     11 C7         -6.6922   -3.8848   -0.2361 C.ar      1 <0>        -0.0567
     12 C8         -6.9091   -5.2506   -0.2299 C.ar      1 <0>        -0.0806
     13 C9         -5.8399   -6.1235   -0.1434 C.ar      1 <0>        -0.0555
     14 C10        -4.5509   -5.6336   -0.0691 C.ar      1 <0>        -0.1204
     15 C11        -6.0813   -7.6110   -0.1361 C.3       1 <0>        -0.1211
     16 C12        -8.3139   -5.7891   -0.3172 C.3       1 <0>        -0.0425
     17 C13        -8.6858   -5.9903   -1.7637 C.ar      1 <0>        -0.0997
     18 C14        -9.2792   -4.9545   -2.4725 C.ar      1 <0>        -0.0943
     19 C15        -9.6274   -5.1176   -3.7953 C.ar      1 <0>        -0.1291
     20 C16        -9.3826   -6.3313   -4.4297 C.ar      1 <0>         0.0940
     21 C17        -8.7807   -7.3774   -3.7071 C.ar      1 <0>        -0.0987
     22 C18        -8.4312   -7.1886   -2.3685 C.ar      1 <0>        -0.0659
     23 C19        -8.6618   -8.4990   -4.6419 C.2       1 <0>        -0.1601
     24 C20        -9.1715   -8.0886   -5.8140 C.2       1 <0>         0.0511
     25 N2         -9.6071   -6.7960   -5.7062 N.pl3     1 <0>        -0.5962
     26 H1        -10.0133   -6.2832   -6.4224 H         1 <0>         0.4150
     27 C21        -8.0776   -9.8559   -4.3444 C.3       1 <0>        -0.0213
     28 C22        -9.1419  -10.9309   -4.5740 C.3       1 <0>        -0.1431
     29 C23        -6.8861  -10.1121   -5.2694 C.3       1 <0>        -0.1438
     30 C24        -7.8605   -2.9376   -0.3295 C.3       1 <0>        -0.1208
     31 H2          3.6522   -4.2908   -1.8489 H         1 <0>         0.0848
     32 H3          2.7197   -5.7337   -1.3835 H         1 <0>         0.0701
     33 H4          2.3601   -4.8967   -2.9127 H         1 <0>         0.0699
     34 H5          1.9668   -3.7404   -0.1154 H         1 <0>         0.0748
     35 H6          1.6072   -2.9033   -1.6445 H         1 <0>         0.0745
     36 H7         -2.8515   -2.9422    0.4973 H         1 <0>         0.4233
     37 H8         -5.2375   -2.3212   -0.1607 H         1 <0>         0.1276
     38 H9         -3.7160   -6.3158   -0.0061 H         1 <0>         0.1391
     39 H10        -6.0699   -7.9860   -1.1595 H         1 <0>         0.0762
     40 H11        -5.2979   -8.1034    0.4400 H         1 <0>         0.0676
     41 H12        -7.0507   -7.8195    0.3165 H         1 <0>         0.0730
     42 H13        -8.3710   -6.7422    0.2086 H         1 <0>         0.0843
     43 H14        -9.0039   -5.0800    0.1401 H         1 <0>         0.0845
     44 H15        -9.4701   -4.0115   -1.9819 H         1 <0>         0.1255
     45 H16       -10.0892   -4.3060   -4.3380 H         1 <0>         0.1183
     46 H17        -7.9650   -7.9882   -1.8121 H         1 <0>         0.1218
     47 H18        -9.2296   -8.6898   -6.7093 H         1 <0>         0.1660
     48 H19        -7.7457   -9.8890   -3.3067 H         1 <0>         0.0747
     49 H20        -9.4738  -10.8978   -5.6117 H         1 <0>         0.0527
     50 H21        -8.7193  -11.9123   -4.3588 H         1 <0>         0.0561
     51 H22        -9.9907  -10.7483   -3.9150 H         1 <0>         0.0548
     52 H23        -6.1279   -9.3463   -5.1058 H         1 <0>         0.0552
     53 H24        -6.4635  -11.0936   -5.0542 H         1 <0>         0.0563
     54 H25        -7.2180  -10.0791   -6.3071 H         1 <0>         0.0526
     55 H26        -8.0727   -2.7245   -1.3772 H         1 <0>         0.0749
     56 H27        -8.7359   -3.3937    0.1330 H         1 <0>         0.0741
     57 H28        -7.6181   -2.0095    0.1882 H         1 <0>         0.0671
@<TRIPOS>BOND
     1    1    2 1
     2    1   31 1
     3    1   32 1
     4    1   33 1
     5    2    3 1
     6    2   34 1
     7    2   35 1
     8    3    4 1
     9    4    5 2
    10    4    6 1
    11    6    7 2
    12    6    8 am
    13    8    9 1
    14    8   36 1
    15    9   14 ar
    16    9   10 ar
    17   10   11 ar
    18   10   37 1
    19   11   12 ar
    20   11   30 1
    21   12   13 ar
    22   12   16 1
    23   13   14 ar
    24   13   15 1
    25   14   38 1
    26   15   39 1
    27   15   40 1
    28   15   41 1
    29   16   17 1
    30   16   42 1
    31   16   43 1
    32   17   22 ar
    33   17   18 ar
    34   18   19 ar
    35   18   44 1
    36   19   20 ar
    37   19   45 1
    38   20   25 1
    39   20   21 ar
    40   21   22 ar
    41   21   23 1
    42   22   46 1
    43   23   24 2
    44   23   27 1
    45   24   25 1
    46   24   47 1
    47   25   26 1
    48   27   28 1
    49   27   29 1
    50   27   48 1
    51   28   49 1
    52   28   50 1
    53   28   51 1
    54   29   52 1
    55   29   53 1
    56   29   54 1
    57   30   55 1
    58   30   56 1
    59   30   57 1
@<TRIPOS>MOLECULE
CHEMBL196613
   43    46     0     0     0
SMALL
USER_CHARGES

@<TRIPOS>ATOM
      1 C1          0.1451    1.6514   -0.1026 C.ar      1 <0>        -0.1205
      2 C2          1.3210    2.3549   -0.2935 C.ar      1 <0>        -0.1217
      3 C3          2.5299    1.6903   -0.3167 C.ar      1 <0>        -0.0901
      4 C4          2.5649    0.3061   -0.1471 C.ar      1 <0>        -0.0327
      5 C5          1.3757   -0.3976    0.0450 C.ar      1 <0>        -0.1070
      6 C6          0.1732    0.2785    0.0661 C.ar      1 <0>        -0.1223
      7 C7          3.8587   -0.4133   -0.1713 C.ar      1 <0>        -0.0758
      8 C8          4.1431   -1.3397   -1.2029 C.ar      1 <0>        -0.0204
      9 C9          3.2135   -1.5981   -2.2213 C.ar      1 <0>        -0.1128
     10 C10         3.5084   -2.4944   -3.2051 C.ar      1 <0>        -0.1023
     11 C11         4.7246   -3.1668   -3.2223 C.ar      1 <0>        -0.0981
     12 C12         5.6698   -2.9412   -2.2364 C.ar      1 <0>        -0.0030
     13 C13         5.3870   -2.0142   -1.2040 C.ar      1 <0>        -0.0351
     14 C14         6.3184   -1.7569   -0.1868 C.ar      1 <0>        -0.0689
     15 C15         6.0275   -0.8622    0.7977 C.ar      1 <0>        -0.1441
     16 C16         4.8090   -0.1824    0.8147 C.ar      1 <0>         0.1224
     17 O1          4.5485    0.7087    1.8061 O.3       1 <0>        -0.4930
     18 C17         6.9627   -3.6619   -2.2609 C.ar      1 <0>        -0.1001
     19 C18         7.0906   -4.8920   -1.6127 C.ar      1 <0>         0.0155
     20 C19         8.2968   -5.5611   -1.6380 C.ar      1 <0>        -0.1170
     21 C20         9.3839   -5.0122   -2.3076 C.ar      1 <0>         0.2425
     22 C21         9.2604   -3.7879   -2.9535 C.ar      1 <0>        -0.1727
     23 C22         8.0556   -3.1159   -2.9372 C.ar      1 <0>         0.0176
     24 Cl1         7.9005   -1.5901   -3.7504 Cl        1 <0>        -0.0655
     25 N1         10.6051   -5.6933   -2.3312 N.am      1 <0>        -0.7073
     26 C23        10.6249   -7.0408   -2.3496 C.2       1 <0>         0.6520
     27 O2          9.5783   -7.6666   -2.4440 O.co2     1 <0>        -0.6929
     28 O3         11.6896   -7.6378   -2.2718 O.co2     1 <0>        -0.6987
     29 Cl2         5.7335   -5.5784   -0.7754 Cl        1 <0>        -0.0625
     30 H1         -0.7983    2.1767   -0.0808 H         1 <0>         0.1196
     31 H2          1.2926    3.4265   -0.4251 H         1 <0>         0.1215
     32 H3          3.4471    2.2405   -0.4661 H         1 <0>         0.1220
     33 H4          1.3963   -1.4693    0.1765 H         1 <0>         0.1227
     34 H5         -0.7482   -0.2651    0.2147 H         1 <0>         0.1219
     35 H6          2.2625   -1.0862   -2.2257 H         1 <0>         0.1248
     36 H7          2.7848   -2.6855   -3.9837 H         1 <0>         0.1240
     37 H8          4.9342   -3.8725   -4.0125 H         1 <0>         0.1259
     38 H9          7.2687   -2.2701   -0.1843 H         1 <0>         0.1314
     39 H10         6.7526   -0.6730    1.5754 H         1 <0>         0.1302
     40 H11         4.1226    0.3200    2.5824 H         1 <0>         0.3873
     41 H12         8.3965   -6.5124   -1.1365 H         1 <0>         0.1578
     42 H13        10.1073   -3.3641   -3.4726 H         1 <0>         0.1359
     43 H14        11.4378   -5.1959   -2.3343 H         1 <0>         0.3895
@<TRIPOS>BOND
     1    1    6 ar
     2    1    2 ar
     3    1   30 1
     4    2    3 ar
     5    2   31 1
     6    3    4 ar
     7    3   32 1
     8    4    5 ar
     9    4    7 1
    10    5    6 ar
    11    5   33 1
    12    6   34 1
    13    7   16 ar
    14    7    8 ar
    15    8   13 ar
    16    8    9 ar
    17    9   10 ar
    18    9   35 1
    19   10   11 ar
    20   10   36 1
    21   11   12 ar
    22   11   37 1
    23   12   13 ar
    24   12   18 1
    25   13   14 ar
    26   14   15 ar
    27   14   38 1
    28   15   16 ar
    29   15   39 1
    30   16   17 1
    31   17   40 1
    32   18   23 ar
    33   18   19 ar
    34   19   20 ar
    35   19   29 1
    36   20   21 ar
    37   20   41 1
    38   21   22 ar
    39   21   25 1
    40   22   23 ar
    41   22   42 1
    42   23   24 1
    43   25   26 am
    44   25   43 1
    45   26   27 2
    46   26   28 1
@<TRIPOS>MOLECULE
CHEMBL124126
   51    54     0     0     0
SMALL
USER_CHARGES

@<TRIPOS>ATOM
      1 C1         -0.1112    1.2061    0.9653 C.ar      1 <0>        -0.1214
      2 C2          1.0271    1.8220    1.4482 C.ar      1 <0>        -0.1204
      3 C3          2.2353    1.1413    1.4523 C.ar      1 <0>         0.1832
      4 C4          2.3012   -0.1581    0.9708 C.ar      1 <0>        -0.6709
      5 C5          1.1635   -0.7739    0.4875 C.ar      1 <0>        -0.0245
      6 C6         -0.0456   -0.0933    0.4843 C.ar      1 <0>         0.0962
      7 O1         -1.1659   -0.6998    0.0093 O.3       1 <0>        -0.2334
      8 C7         -2.3285    0.0048    0.0248 C.ar      1 <0>         0.1034
      9 C8         -3.1590   -0.0507    1.1362 C.ar      1 <0>        -0.0255
     10 C9         -4.3404    0.6652    1.1522 C.ar      1 <0>        -0.0788
     11 C10        -4.6975    1.4405    0.0565 C.ar      1 <0>         0.1876
     12 C11        -3.8665    1.4958   -1.0552 C.ar      1 <0>        -0.0735
     13 C12        -2.6824    0.7842   -1.0684 C.ar      1 <0>        -0.0222
     14 Cl1        -1.6404    0.8589   -2.4548 Cl        1 <0>        -0.0160
     15 N1         -5.8953    2.1659    0.0723 N.am      1 <0>        -0.4047
     16 C13        -6.7346    2.0840   -0.9754 C.2       1 <0>         0.6843
     17 O2         -6.4421    1.3811   -1.9234 O.2       1 <0>        -0.5098
     18 N2         -7.8939    2.7682   -0.9901 N.am      1 <0>        -0.6530
     19 H1         -8.4885    2.6980   -1.7533 H         1 <0>         0.4404
     20 C14        -8.2295    3.5510    0.0561 C.2       1 <0>         0.5164
     21 O3         -9.2764    4.1720    0.0502 O.2       1 <0>        -0.4652
     22 C15        -7.3185    3.6442    1.1997 C.2       1 <0>         0.0702
     23 N3         -6.2060    2.9623    1.1809 N.2       1 <0>        -0.1690
     24 Cl2        -2.7129   -1.0201    2.5055 Cl        1 <0>        -0.0160
     25 S1          3.8365   -1.0226    0.9755 S.o2      1 <0>         2.6996
     26 O4          4.3874   -0.8649    2.2758 O.2       1 <0>        -0.9500
     27 O5          3.5855   -2.2992    0.4042 O.2       1 <0>        -0.9520
     28 N4          4.8488   -0.2283   -0.0669 N.pl3     1 <0>        -0.9878
     29 C16         4.8950   -0.5932   -1.4894 C.3       1 <0>         0.1183
     30 C17         4.6636    0.6668   -2.3294 C.3       1 <0>        -0.1358
     31 C18         5.6765    1.7394   -1.9226 C.3       1 <0>        -0.1193
     32 C19         5.4773    2.0985   -0.4483 C.3       1 <0>        -0.1323
     33 C20         5.7135    0.8588    0.4119 C.3       1 <0>         0.1245
     34 O6          3.3557    1.7477    1.9277 O.3       1 <0>        -0.4940
     35 H2         -1.0530    1.7347    0.9663 H         1 <0>         0.1358
     36 H3          0.9761    2.8339    1.8224 H         1 <0>         0.1452
     37 H4          1.2149   -1.7852    0.1121 H         1 <0>         0.1593
     38 H5         -4.9866    0.6218    2.0166 H         1 <0>         0.1602
     39 H6         -4.1439    2.0986   -1.9073 H         1 <0>         0.1577
     40 H7         -7.5663    4.2646    2.0482 H         1 <0>         0.2343
     41 H8          5.8711   -1.0164   -1.7266 H         1 <0>         0.0781
     42 H9          4.1155   -1.3241   -1.7046 H         1 <0>         0.0901
     43 H10         4.7906    0.4283   -3.3854 H         1 <0>         0.0754
     44 H11         3.6529    1.0373   -2.1586 H         1 <0>         0.0655
     45 H12         6.6873    1.3591   -2.0703 H         1 <0>         0.0643
     46 H13         5.5300    2.6285   -2.5359 H         1 <0>         0.0634
     47 H14         6.1835    2.8792   -0.1654 H         1 <0>         0.0734
     48 H15         4.4589    2.4556   -0.2952 H         1 <0>         0.0721
     49 H16         5.4739    1.0857    1.4507 H         1 <0>         0.0978
     50 H17         6.7578    0.5567    0.3332 H         1 <0>         0.0709
     51 H18         3.5034    1.6148    2.8741 H         1 <0>         0.4082
@<TRIPOS>BOND
     1    1    6 ar
     2    1    2 ar
     3    1   35 1
     4    2    3 ar
     5    2   36 1
     6    3    4 ar
     7    3   34 1
     8    4    5 ar
     9    4   25 1
    10    5    6 ar
    11    5   37 1
    12    6    7 1
    13    7    8 1
    14    8   13 ar
    15    8    9 ar
    16    9   10 ar
    17    9   24 1
    18   10   11 ar
    19   10   38 1
    20   11   12 ar
    21   11   15 1
    22   12   13 ar
    23   12   39 1
    24   13   14 1
    25   15   23 1
    26   15   16 am
    27   16   17 2
    28   16   18 am
    29   18   19 1
    30   18   20 am
    31   20   21 2
    32   20   22 1
    33   22   23 2
    34   22   40 1
    35   25   26 2
    36   25   27 2
    37   25   28 1
    38   28   33 1
    39   28   29 1
    40   29   30 1
    41   29   41 1
    42   29   42 1
    43   30   31 1
    44   30   43 1
    45   30   44 1
    46   31   32 1
    47   31   45 1
    48   31   46 1
    49   32   33 1
    50   32   47 1
    51   32   48 1
    52   33   49 1
    53   33   50 1
    54   34   51 1
@<TRIPOS>MOLECULE
CHEMBL124126__1
   50    53     0     0     0
SMALL
USER_CHARGES

@<TRIPOS>ATOM
      1 C1         -0.1120    1.2048    0.9687 C.ar      1 <0>        -0.1197
      2 C2          1.0259    1.8200    1.4535 C.ar      1 <0>        -0.1194
      3 C3          2.2342    1.1392    1.4576 C.ar      1 <0>         0.1748
      4 C4          2.3004   -0.1595    0.9744 C.ar      1 <0>        -0.6716
      5 C5          1.1630   -0.7748    0.4897 C.ar      1 <0>        -0.0307
      6 C6         -0.0460   -0.0939    0.4859 C.ar      1 <0>         0.1038
      7 O1         -1.1658   -0.6997    0.0091 O.3       1 <0>        -0.2316
      8 C7         -2.3283    0.0048    0.0247 C.ar      1 <0>         0.0780
      9 C8         -3.1598   -0.0522    1.1354 C.ar      1 <0>        -0.0225
     10 C9         -4.3412    0.6636    1.1514 C.ar      1 <0>        -0.0908
     11 C10        -4.6972    1.4408    0.0565 C.ar      1 <0>         0.2029
     12 C11        -3.8649    1.4980   -1.0544 C.ar      1 <0>        -0.0726
     13 C12        -2.6813    0.7858   -1.0679 C.ar      1 <0>        -0.0193
     14 Cl1        -1.6383    0.8620   -2.4536 Cl        1 <0>        -0.0321
     15 N1         -5.8943    2.1658    0.0722 N.am      1 <0>        -0.3720
     16 C13        -6.7300    2.0806   -0.9784 C.2       1 <0>         0.6175
     17 O2         -6.4369    1.3754   -1.9298 O.2       1 <0>        -0.5684
     18 N2         -7.8789    2.7626   -0.9872 N.2       1 <0>        -0.6226
     19 C14        -8.1852    3.5249    0.0537 C.2       1 <0>         0.4330
     20 O3         -9.3398    4.2275    0.0769 O.3       1 <0>        -0.6434
     21 C15        -7.2824    3.5885    1.1376 C.2       1 <0>         0.0095
     22 N3         -6.1753    2.8960    1.0937 N.2       1 <0>        -0.2237
     23 Cl2        -2.7149   -1.0236    2.5037 Cl        1 <0>        -0.0341
     24 S1          3.8358   -1.0238    0.9786 S.o2      1 <0>         2.7015
     25 O4          4.3861   -0.8679    2.2794 O.2       1 <0>        -0.9534
     26 O5          3.5852   -2.2997    0.4054 O.2       1 <0>        -0.9542
     27 N4          4.8486   -0.2279   -0.0622 N.pl3     1 <0>        -0.9887
     28 C16         4.8955   -0.5909   -1.4851 C.3       1 <0>         0.1192
     29 C17         4.6644    0.6702   -2.3235 C.3       1 <0>        -0.1369
     30 C18         5.6769    1.7424   -1.9147 C.3       1 <0>        -0.1181
     31 C19         5.4770    2.0995   -0.4400 C.3       1 <0>        -0.1330
     32 C20         5.7128    0.8586    0.4186 C.3       1 <0>         0.1256
     33 O6          3.3541    1.7450    1.9349 O.3       1 <0>        -0.4952
     34 H1         -1.0538    1.7333    0.9696 H         1 <0>         0.1391
     35 H2          0.9746    2.8313    1.8290 H         1 <0>         0.1436
     36 H3          1.2147   -1.7857    0.1132 H         1 <0>         0.1572
     37 H4         -4.9882    0.6186    2.0150 H         1 <0>         0.1555
     38 H5         -4.1415    2.1020   -1.9060 H         1 <0>         0.1575
     39 H6         -7.5070    4.2019    1.9976 H         1 <0>         0.1841
     40 H7          5.8717   -1.0136   -1.7224 H         1 <0>         0.0760
     41 H8          4.1162   -1.3216   -1.7017 H         1 <0>         0.0904
     42 H9          4.7919    0.4333   -3.3798 H         1 <0>         0.0747
     43 H10         3.6535    1.0405   -2.1527 H         1 <0>         0.0676
     44 H11         6.6878    1.3625   -2.0625 H         1 <0>         0.0626
     45 H12         5.5306    2.6324   -2.5268 H         1 <0>         0.0629
     46 H13         6.1829    2.8798   -0.1556 H         1 <0>         0.0720
     47 H14         4.4585    2.4562   -0.2869 H         1 <0>         0.0738
     48 H15         5.4727    1.0840    1.4576 H         1 <0>         0.0976
     49 H16         6.7573    0.5567    0.3400 H         1 <0>         0.0686
     50 H17         3.5010    1.6107    2.8812 H         1 <0>         0.4049
@<TRIPOS>BOND
     1    1    6 ar
     2    1    2 ar
     3    1   34 1
     4    2    3 ar
     5    2   35 1
     6    3    4 ar
     7    3   33 1
     8    4    5 ar
     9    4   24 1
    10    5    6 ar
    11    5   36 1
    12    6    7 1
    13    7    8 1
    14    8   13 ar
    15    8    9 ar
    16    9   10 ar
    17    9   23 1
    18   10   11 ar
    19   10   37 1
    20   11   12 ar
    21   11   15 1
    22   12   13 ar
    23   12   38 1
    24   13   14 1
    25   15   22 1
    26   15   16 am
    27   16   17 2
    28   16   18 1
    29   18   19 2
    30   19   20 1
    31   19   21 1
    32   21   22 2
    33   21   39 1
    34   24   25 2
    35   24   26 2
    36   24   27 1
    37   27   32 1
    38   27   28 1
    39   28   29 1
    40   28   40 1
    41   28   41 1
    42   29   30 1
    43   29   42 1
    44   29   43 1
    45   30   31 1
    46   30   44 1
    47   30   45 1
    48   31   32 1
    49   31   46 1
    50   31   47 1
    51   32   48 1
    52   32   49 1
    53   33   50 1
@<TRIPOS>MOLECULE
CHEMBL124126__2
   50    53     0     0     0
SMALL
USER_CHARGES

@<TRIPOS>ATOM
      1 C1         -0.1112    1.2061    0.9653 C.ar      1 <0>        -0.0898
      2 C2          1.0271    1.8220    1.4482 C.ar      1 <0>        -0.2207
      3 C3          2.2353    1.1413    1.4523 C.ar      1 <0>         0.3343
      4 C4          2.3012   -0.1581    0.9708 C.ar      1 <0>        -0.7941
      5 C5          1.1635   -0.7739    0.4875 C.ar      1 <0>         0.0153
      6 C6         -0.0456   -0.0933    0.4843 C.ar      1 <0>        -0.0401
      7 O1         -1.1659   -0.6998    0.0093 O.3       1 <0>        -0.2514
      8 C7         -2.3285    0.0048    0.0248 C.ar      1 <0>         0.1437
      9 C8         -3.1590   -0.0507    1.1362 C.ar      1 <0>        -0.0345
     10 C9         -4.3404    0.6652    1.1522 C.ar      1 <0>        -0.0790
     11 C10        -4.6975    1.4405    0.0565 C.ar      1 <0>         0.1603
     12 C11        -3.8665    1.4958   -1.0552 C.ar      1 <0>        -0.0734
     13 C12        -2.6824    0.7842   -1.0684 C.ar      1 <0>        -0.0311
     14 Cl1        -1.6404    0.8589   -2.4548 Cl        1 <0>        -0.0219
     15 N1         -5.8953    2.1659    0.0723 N.am      1 <0>        -0.3955
     16 C13        -6.7346    2.0840   -0.9754 C.2       1 <0>         0.6818
     17 O2         -6.4421    1.3811   -1.9234 O.2       1 <0>        -0.5104
     18 N2         -7.8939    2.7682   -0.9901 N.am      1 <0>        -0.6538
     19 H1         -8.4885    2.6980   -1.7533 H         1 <0>         0.4374
     20 C14        -8.2295    3.5510    0.0561 C.2       1 <0>         0.5194
     21 O3         -9.2764    4.1720    0.0502 O.2       1 <0>        -0.4763
     22 C15        -7.3185    3.6442    1.1997 C.2       1 <0>         0.0553
     23 N3         -6.2060    2.9623    1.1809 N.2       1 <0>        -0.1604
     24 Cl2        -2.7129   -1.0201    2.5055 Cl        1 <0>        -0.0211
     25 S1          3.8365   -1.0226    0.9755 S.o2      1 <0>         2.7139
     26 O4          4.3874   -0.8649    2.2758 O.2       1 <0>        -0.9631
     27 O5          3.5855   -2.2992    0.4042 O.2       1 <0>        -0.9975
     28 N4          4.8488   -0.2283   -0.0669 N.pl3     1 <0>        -0.9926
     29 C16         4.8950   -0.5932   -1.4894 C.3       1 <0>         0.1247
     30 C17         4.6636    0.6668   -2.3294 C.3       1 <0>        -0.1342
     31 C18         5.6765    1.7394   -1.9226 C.3       1 <0>        -0.1142
     32 C19         5.4773    2.0985   -0.4483 C.3       1 <0>        -0.1288
     33 C20         5.7135    0.8588    0.4119 C.3       1 <0>         0.1309
     34 O6          3.3557    1.7477    1.9277 O.3       1 <0>        -0.6847
     35 H2         -1.0530    1.7347    0.9663 H         1 <0>         0.0985
     36 H3          0.9761    2.8339    1.8224 H         1 <0>         0.1079
     37 H4          1.2149   -1.7852    0.1121 H         1 <0>         0.1226
     38 H5         -4.9866    0.6218    2.0166 H         1 <0>         0.1523
     39 H6         -4.1439    2.0986   -1.9073 H         1 <0>         0.1498
     40 H7         -7.5663    4.2646    2.0482 H         1 <0>         0.2310
     41 H8          5.8711   -1.0164   -1.7266 H         1 <0>         0.0621
     42 H9          4.1155   -1.3241   -1.7046 H         1 <0>         0.0839
     43 H10         4.7906    0.4283   -3.3854 H         1 <0>         0.0641
     44 H11         3.6529    1.0373   -2.1586 H         1 <0>         0.0682
     45 H12         6.6873    1.3591   -2.0703 H         1 <0>         0.0556
     46 H13         5.5300    2.6285   -2.5359 H         1 <0>         0.0547
     47 H14         6.1835    2.8792   -0.1654 H         1 <0>         0.0614
     48 H15         4.4589    2.4556   -0.2952 H         1 <0>         0.0787
     49 H16         5.4739    1.0857    1.4507 H         1 <0>         0.1121
     50 H17         6.7578    0.5567    0.3332 H         1 <0>         0.0485
@<TRIPOS>BOND
     1    1    6 ar
     2    1    2 ar
     3    1   35 1
     4    2    3 ar
     5    2   36 1
     6    3    4 ar
     7    3   34 1
     8    4    5 ar
     9    4   25 1
    10    5    6 ar
    11    5   37 1
    12    6    7 1
    13    7    8 1
    14    8   13 ar
    15    8    9 ar
    16    9   10 ar
    17    9   24 1
    18   10   11 ar
    19   10   38 1
    20   11   12 ar
    21   11   15 1
    22   12   13 ar
    23   12   39 1
    24   13   14 1
    25   15   23 1
    26   15   16 am
    27   16   17 2
    28   16   18 am
    29   18   19 1
    30   18   20 am
    31   20   21 2
    32   20   22 1
    33   22   23 2
    34   22   40 1
    35   25   26 2
    36   25   27 2
    37   25   28 1
    38   28   33 1
    39   28   29 1
    40   29   30 1
    41   29   41 1
    42   29   42 1
    43   30   31 1
    44   30   43 1
    45   30   44 1
    46   31   32 1
    47   31   45 1
    48   31   46 1
    49   32   33 1
    50   32   47 1
    51   32   48 1
    52   33   49 1
    53   33   50 1
@<TRIPOS>MOLECULE
CHEMBL485939
   49    51     0     0     0
SMALL
USER_CHARGES

@<TRIPOS>ATOM
      1 C1          0.1519   -2.8665    2.2421 C.3       1 <0>        -0.1025
      2 C2          0.0518   -2.0046    1.0099 C.ar      1 <0>        -0.0735
      3 C3          0.1230   -2.5813   -0.2434 C.ar      1 <0>        -0.1721
      4 C4          0.0308   -1.7873   -1.3773 C.ar      1 <0>         0.1390
      5 C5         -0.1327   -0.4156   -1.2493 C.ar      1 <0>        -0.1120
      6 C6         -0.2034    0.1562    0.0062 C.ar      1 <0>        -0.0516
      7 C7         -0.1169   -0.6380    1.1347 C.ar      1 <0>        -0.1382
      8 C8         -0.2010   -0.0123    2.5031 C.3       1 <0>        -0.0355
      9 C9         -1.6386    0.0180    2.9542 C.ar      1 <0>        -0.0569
     10 C10        -2.4298    1.1153    2.6623 C.ar      1 <0>        -0.0977
     11 C11        -3.7491    1.1523    3.0716 C.ar      1 <0>        -0.1414
     12 C12        -4.2870    0.0879    3.7775 C.ar      1 <0>         0.0993
     13 C13        -3.4904   -1.0221    4.0734 C.ar      1 <0>        -0.0803
     14 C14        -2.1630   -1.0510    3.6518 C.ar      1 <0>        -0.0904
     15 C15        -4.0573   -2.1660    4.8285 C.ar      1 <0>        -0.0353
     16 C16        -3.8943   -3.4664    4.3547 C.ar      1 <0>        -0.1065
     17 C17        -4.4236   -4.5271    5.0616 C.ar      1 <0>        -0.1222
     18 C18        -5.1147   -4.3012    6.2383 C.ar      1 <0>        -0.1243
     19 C19        -5.2796   -3.0126    6.7133 C.ar      1 <0>        -0.1268
     20 C20        -4.7500   -1.9448    6.0174 C.ar      1 <0>        -0.0913
     21 O1         -5.5837    0.1233    4.1809 O.3       1 <0>        -0.4965
     22 C21        -0.3811    1.6462    0.1459 C.3       1 <0>        -0.1097
     23 O2          0.1011   -2.3522   -2.6113 O.3       1 <0>        -0.3026
     24 C22        -0.0012   -1.4738   -3.7337 C.3       1 <0>        -0.5454
     25 P1          1.5617   -0.5565   -3.9319 P.3       1 <0>         2.1663
     26 O3          1.8439    0.2802   -2.6379 O.2       1 <0>        -1.1388
     27 O4          2.7349   -1.5682   -4.1658 O.3       1 <0>        -1.1628
     28 O5          1.4496    0.4066   -5.1625 O.3       1 <0>        -1.1689
     29 H1         -0.8488   -3.1429    2.5744 H         1 <0>         0.0570
     30 H2          0.7195   -3.7676    2.0100 H         1 <0>         0.0584
     31 H3          0.6572   -2.3123    3.0330 H         1 <0>         0.0624
     32 H4          0.2508   -3.6493   -0.3403 H         1 <0>         0.1124
     33 H5         -0.2044    0.2046   -2.1305 H         1 <0>         0.1410
     34 H6          0.3886   -0.5989    3.2077 H         1 <0>         0.0764
     35 H7          0.1884    1.0050    2.4621 H         1 <0>         0.0814
     36 H8         -2.0141    1.9467    2.1124 H         1 <0>         0.1328
     37 H9         -4.3614    2.0116    2.8415 H         1 <0>         0.1261
     38 H10        -1.5437   -1.9074    3.8743 H         1 <0>         0.1298
     39 H11        -3.3552   -3.6439    3.4359 H         1 <0>         0.1254
     40 H12        -4.2982   -5.5352    4.6952 H         1 <0>         0.1215
     41 H13        -5.5275   -5.1341    6.7881 H         1 <0>         0.1174
     42 H14        -5.8204   -2.8420    7.6324 H         1 <0>         0.1188
     43 H15        -4.8758   -0.9394    6.3913 H         1 <0>         0.1244
     44 H16        -6.2056   -0.2453    3.5386 H         1 <0>         0.3836
     45 H17        -1.4392    1.8757    0.2721 H         1 <0>         0.0532
     46 H18         0.1733    1.9982    1.0159 H         1 <0>         0.0599
     47 H19        -0.0059    2.1423   -0.7491 H         1 <0>         0.0773
     48 H20        -0.1975   -2.0560   -4.6341 H         1 <0>         0.0794
     49 H21        -0.8174   -0.7699   -3.5710 H         1 <0>         0.0402
@<TRIPOS>BOND
     1    1    2 1
     2    1   29 1
     3    1   30 1
     4    1   31 1
     5    2    7 ar
     6    2    3 ar
     7    3    4 ar
     8    3   32 1
     9    4    5 ar
    10    4   23 1
    11    5    6 ar
    12    5   33 1
    13    6    7 ar
    14    6   22 1
    15    7    8 1
    16    8    9 1
    17    8   34 1
    18    8   35 1
    19    9   14 ar
    20    9   10 ar
    21   10   11 ar
    22   10   36 1
    23   11   12 ar
    24   11   37 1
    25   12   13 ar
    26   12   21 1
    27   13   14 ar
    28   13   15 1
    29   14   38 1
    30   15   20 ar
    31   15   16 ar
    32   16   17 ar
    33   16   39 1
    34   17   18 ar
    35   17   40 1
    36   18   19 ar
    37   18   41 1
    38   19   20 ar
    39   19   42 1
    40   20   43 1
    41   21   44 1
    42   22   45 1
    43   22   46 1
    44   22   47 1
    45   23   24 1
    46   24   25 1
    47   24   48 1
    48   24   49 1
    49   25   26 2
    50   25   27 1
    51   25   28 1
@<TRIPOS>MOLECULE
CHEMBL485939__1
   50    52     0     0     0
SMALL
USER_CHARGES

@<TRIPOS>ATOM
      1 C1          0.1519   -2.8665    2.2421 C.3       1 <0>        -0.1112
      2 C2          0.0518   -2.0046    1.0099 C.ar      1 <0>        -0.0597
      3 C3          0.1230   -2.5813   -0.2434 C.ar      1 <0>        -0.1569
      4 C4          0.0308   -1.7873   -1.3773 C.ar      1 <0>         0.1196
      5 C5         -0.1327   -0.4156   -1.2493 C.ar      1 <0>        -0.1317
      6 C6         -0.2034    0.1562    0.0062 C.ar      1 <0>        -0.0418
      7 C7         -0.1169   -0.6380    1.1347 C.ar      1 <0>        -0.1233
      8 C8         -0.2010   -0.0123    2.5031 C.3       1 <0>        -0.0394
      9 C9         -1.6386    0.0180    2.9542 C.ar      1 <0>        -0.0655
     10 C10        -2.4298    1.1153    2.6623 C.ar      1 <0>        -0.0993
     11 C11        -3.7490    1.1523    3.0716 C.ar      1 <0>        -0.1412
     12 C12        -4.2870    0.0879    3.7775 C.ar      1 <0>         0.1051
     13 C13        -3.4903   -1.0221    4.0735 C.ar      1 <0>        -0.0753
     14 C14        -2.1630   -1.0510    3.6518 C.ar      1 <0>        -0.0903
     15 C15        -4.0573   -2.1660    4.8285 C.ar      1 <0>        -0.0416
     16 C16        -3.8943   -3.4664    4.3547 C.ar      1 <0>        -0.1070
     17 C17        -4.4236   -4.5270    5.0616 C.ar      1 <0>        -0.1222
     18 C18        -5.1147   -4.3012    6.2383 C.ar      1 <0>        -0.1206
     19 C19        -5.2796   -3.0125    6.7133 C.ar      1 <0>        -0.1247
     20 C20        -4.7500   -1.9448    6.0174 C.ar      1 <0>        -0.0898
     21 O1         -5.5837    0.1233    4.1809 O.3       1 <0>        -0.4948
     22 C21        -0.3811    1.6462    0.1459 C.3       1 <0>        -0.1145
     23 O2          0.1011   -2.3522   -2.6113 O.3       1 <0>        -0.2869
     24 C22        -0.0012   -1.4738   -3.7337 C.3       1 <0>        -0.5412
     25 P1          1.5617   -0.5565   -3.9319 P.3       1 <0>         2.2101
     26 O3          1.8400    0.2687   -2.6558 O.2       1 <0>        -1.0584
     27 O4          2.7186   -1.5542   -4.1625 O.3       1 <0>        -1.0744
     28 O5          1.4465    0.4332   -5.1966 O.3       1 <0>        -0.9010
     29 H1         -0.8488   -3.1429    2.5744 H         1 <0>         0.0645
     30 H2          0.7195   -3.7676    2.0100 H         1 <0>         0.0638
     31 H3          0.6572   -2.3123    3.0330 H         1 <0>         0.0681
     32 H4          0.2507   -3.6493   -0.3403 H         1 <0>         0.1206
     33 H5         -0.2044    0.2046   -2.1305 H         1 <0>         0.1294
     34 H6          0.3886   -0.5989    3.2077 H         1 <0>         0.0811
     35 H7          0.1884    1.0050    2.4621 H         1 <0>         0.0841
     36 H8         -2.0141    1.9467    2.1124 H         1 <0>         0.1309
     37 H9         -4.3614    2.0116    2.8415 H         1 <0>         0.1276
     38 H10        -1.5437   -1.9074    3.8743 H         1 <0>         0.1300
     39 H11        -3.3552   -3.6439    3.4359 H         1 <0>         0.1234
     40 H12        -4.2982   -5.5352    4.6952 H         1 <0>         0.1223
     41 H13        -5.5275   -5.1341    6.7881 H         1 <0>         0.1196
     42 H14        -5.8204   -2.8420    7.6325 H         1 <0>         0.1210
     43 H15        -4.8758   -0.9394    6.3913 H         1 <0>         0.1250
     44 H16        -6.2056   -0.2453    3.5386 H         1 <0>         0.3859
     45 H17        -1.4392    1.8757    0.2721 H         1 <0>         0.0607
     46 H18         0.1733    1.9982    1.0159 H         1 <0>         0.0666
     47 H19        -0.0059    2.1424   -0.7491 H         1 <0>         0.0740
     48 H20        -0.1975   -2.0560   -4.6341 H         1 <0>         0.1009
     49 H21        -0.8174   -0.7699   -3.5710 H         1 <0>         0.0627
     50 H22         2.2440    0.9544   -5.3621 H         1 <0>         0.4157
@<TRIPOS>BOND
     1    1    2 1
     2    1   29 1
     3    1   30 1
     4    1   31 1
     5    2    7 ar
     6    2    3 ar
     7    3    4 ar
     8    3   32 1
     9    4    5 ar
    10    4   23 1
    11    5    6 ar
    12    5   33 1
    13    6    7 ar
    14    6   22 1
    15    7    8 1
    16    8    9 1
    17    8   34 1
    18    8   35 1
    19    9   14 ar
    20    9   10 ar
    21   10   11 ar
    22   10   36 1
    23   11   12 ar
    24   11   37 1
    25   12   13 ar
    26   12   21 1
    27   13   14 ar
    28   13   15 1
    29   14   38 1
    30   15   20 ar
    31   15   16 ar
    32   16   17 ar
    33   16   39 1
    34   17   18 ar
    35   17   40 1
    36   18   19 ar
    37   18   41 1
    38   19   20 ar
    39   19   42 1
    40   20   43 1
    41   21   44 1
    42   22   45 1
    43   22   46 1
    44   22   47 1
    45   23   24 1
    46   24   25 1
    47   24   48 1
    48   24   49 1
    49   25   26 2
    50   25   27 1
    51   25   28 1
    52   28   50 1
@<TRIPOS>MOLECULE
CHEMBL264153
   42    44     0     0     0
SMALL
USER_CHARGES

@<TRIPOS>ATOM
      1 C1         -0.0187    1.5258    0.0104 C.3       1 <0>        -0.1456
      2 C2          0.0021   -0.0041    0.0020 C.3       1 <0>        -0.0838
      3 C3         -1.4117   -0.5257    0.0127 C.ar      1 <0>        -0.0650
      4 C4         -1.9971   -0.9587   -1.1613 C.ar      1 <0>        -0.1184
      5 C5         -3.2982   -1.4392   -1.1513 C.ar      1 <0>         0.1210
      6 C6         -4.0117   -1.4849    0.0378 C.ar      1 <0>        -0.1788
      7 C7         -3.4263   -1.0520    1.2113 C.ar      1 <0>        -0.0997
      8 C8         -2.1231   -0.5764    1.2021 C.ar      1 <0>         0.0808
      9 O1         -1.5449   -0.1554    2.3586 O.3       1 <0>        -0.4916
     10 O2         -3.8746   -1.8649   -2.3068 O.3       1 <0>        -0.2457
     11 C9         -5.1510   -2.3278   -2.2502 C.ar      1 <0>         0.1516
     12 C10        -5.3927   -3.6735   -2.0119 C.ar      1 <0>        -0.1114
     13 C11        -6.6918   -4.1414   -1.9550 C.ar      1 <0>        -0.0495
     14 C12        -7.7503   -3.2703   -2.1352 C.ar      1 <0>        -0.0799
     15 C13        -7.5125   -1.9292   -2.3732 C.ar      1 <0>        -0.0558
     16 C14        -6.2156   -1.4546   -2.4250 C.ar      1 <0>        -0.1117
     17 I1         -5.8566    0.5793   -2.7764 I         1 <0>         0.0020
     18 C15        -9.1658   -3.7835   -2.0725 C.3       1 <0>        -0.0801
     19 C16        -9.6752   -3.7005   -0.6322 C.3       1 <0>         0.0948
     20 C17       -11.1062   -4.1924   -0.5433 C.2       1 <0>         0.5305
     21 O3        -11.5171   -5.3015   -0.8093 O.2       1 <0>        -0.4570
     22 N1        -11.8266   -3.1406   -0.1064 N.am      1 <0>        -0.6784
     23 C18       -11.0576   -2.0637    0.0911 C.2       1 <0>         0.7042
     24 O4        -11.4806   -0.9943    0.4844 O.2       1 <0>        -0.5349
     25 N2         -9.7637   -2.2969   -0.1939 N.am      1 <0>        -0.7233
     26 I2         -3.7896   -4.9945   -1.7394 I         1 <0>         0.0028
     27 H1          1.0039    1.9031    0.0027 H         1 <0>         0.0622
     28 H2         -0.5459    1.8868   -0.8726 H         1 <0>         0.0565
     29 H3         -0.5289    1.8773    0.9072 H         1 <0>         0.0524
     30 H4          0.5123   -0.3556   -0.8948 H         1 <0>         0.0750
     31 H5          0.5293   -0.3651    0.8851 H         1 <0>         0.0826
     32 H6         -1.4418   -0.9227   -2.0868 H         1 <0>         0.1376
     33 H7         -5.0249   -1.8587    0.0456 H         1 <0>         0.1233
     34 H8         -3.9816   -1.0876    2.1369 H         1 <0>         0.1328
     35 H9         -1.6802    0.7834    2.5470 H         1 <0>         0.3867
     36 H10        -6.8805   -5.1886   -1.7699 H         1 <0>         0.1486
     37 H11        -8.3412   -1.2511   -2.5143 H         1 <0>         0.1455
     38 H12        -9.8011   -3.1771   -2.7181 H         1 <0>         0.0960
     39 H13        -9.1915   -4.8204   -2.4078 H         1 <0>         0.1124
     40 H14        -9.0290   -4.2707    0.0353 H         1 <0>         0.1346
     41 H15       -12.7843   -3.1615    0.0456 H         1 <0>         0.4363
     42 H16        -9.0317   -1.6643   -0.1240 H         1 <0>         0.4406
@<TRIPOS>BOND
     1    1    2 1
     2    1   27 1
     3    1   28 1
     4    1   29 1
     5    2    3 1
     6    2   30 1
     7    2   31 1
     8    3    8 ar
     9    3    4 ar
    10    4    5 ar
    11    4   32 1
    12    5    6 ar
    13    5   10 1
    14    6    7 ar
    15    6   33 1
    16    7    8 ar
    17    7   34 1
    18    8    9 1
    19    9   35 1
    20   10   11 1
    21   11   16 ar
    22   11   12 ar
    23   12   13 ar
    24   12   26 1
    25   13   14 ar
    26   13   36 1
    27   14   15 ar
    28   14   18 1
    29   15   16 ar
    30   15   37 1
    31   16   17 1
    32   18   19 1
    33   18   38 1
    34   18   39 1
    35   19   25 1
    36   19   20 1
    37   19   40 1
    38   20   21 2
    39   20   22 am
    40   22   23 am
    41   22   41 1
    42   23   24 2
    43   23   25 am
    44   25   42 1
@<TRIPOS>MOLECULE
CHEMBL264153__1
   42    44     0     0     0
SMALL
USER_CHARGES

@<TRIPOS>ATOM
      1 C1         -0.0187    1.5258    0.0104 C.3       1 <0>        -0.1455
      2 C2          0.0021   -0.0041    0.0020 C.3       1 <0>        -0.0839
      3 C3         -1.4117   -0.5257    0.0127 C.ar      1 <0>        -0.0650
      4 C4         -1.9971   -0.9587   -1.1613 C.ar      1 <0>        -0.1184
      5 C5         -3.2982   -1.4392   -1.1513 C.ar      1 <0>         0.1210
      6 C6         -4.0117   -1.4849    0.0378 C.ar      1 <0>        -0.1788
      7 C7         -3.4263   -1.0520    1.2113 C.ar      1 <0>        -0.0997
      8 C8         -2.1231   -0.5764    1.2021 C.ar      1 <0>         0.0808
      9 O1         -1.5449   -0.1554    2.3586 O.3       1 <0>        -0.4915
     10 O2         -3.8746   -1.8649   -2.3068 O.3       1 <0>        -0.2457
     11 C9         -5.1510   -2.3278   -2.2502 C.ar      1 <0>         0.1515
     12 C10        -5.3927   -3.6735   -2.0119 C.ar      1 <0>        -0.1116
     13 C11        -6.6918   -4.1414   -1.9550 C.ar      1 <0>        -0.0556
     14 C12        -7.7503   -3.2703   -2.1352 C.ar      1 <0>        -0.0799
     15 C13        -7.5125   -1.9292   -2.3732 C.ar      1 <0>        -0.0497
     16 C14        -6.2156   -1.4546   -2.4250 C.ar      1 <0>        -0.1114
     17 I1         -5.8566    0.5793   -2.7764 I         1 <0>         0.0016
     18 C15        -9.1658   -3.7835   -2.0725 C.3       1 <0>        -0.0801
     19 C16        -9.6752   -3.7005   -0.6322 C.3       1 <0>         0.0950
     20 C17       -11.0922   -4.2302   -0.5362 C.2       1 <0>         0.5305
     21 O3        -12.0761   -3.7949   -1.0949 O.2       1 <0>        -0.4572
     22 N1        -11.0306   -5.2863    0.2988 N.am      1 <0>        -0.6785
     23 C18        -9.7846   -5.4953    0.7391 C.2       1 <0>         0.7041
     24 O4         -9.4792   -6.3897    1.5032 O.2       1 <0>        -0.5345
     25 N2         -8.9077   -4.6044    0.2419 N.am      1 <0>        -0.7234
     26 I2         -3.7896   -4.9945   -1.7394 I         1 <0>         0.0031
     27 H1          1.0039    1.9031    0.0027 H         1 <0>         0.0622
     28 H2         -0.5459    1.8868   -0.8726 H         1 <0>         0.0565
     29 H3         -0.5289    1.8773    0.9072 H         1 <0>         0.0524
     30 H4          0.5123   -0.3556   -0.8948 H         1 <0>         0.0750
     31 H5          0.5293   -0.3651    0.8851 H         1 <0>         0.0826
     32 H6         -1.4418   -0.9227   -2.0868 H         1 <0>         0.1376
     33 H7         -5.0249   -1.8587    0.0456 H         1 <0>         0.1234
     34 H8         -3.9816   -1.0876    2.1369 H         1 <0>         0.1328
     35 H9         -1.6802    0.7834    2.5470 H         1 <0>         0.3865
     36 H10        -6.8805   -5.1886   -1.7699 H         1 <0>         0.1456
     37 H11        -8.3412   -1.2511   -2.5143 H         1 <0>         0.1485
     38 H12        -9.8011   -3.1771   -2.7181 H         1 <0>         0.1124
     39 H13        -9.1915   -4.8204   -2.4078 H         1 <0>         0.0960
     40 H14        -9.6208   -2.6753   -0.2659 H         1 <0>         0.1345
     41 H15       -11.7952   -5.8277    0.5499 H         1 <0>         0.4363
     42 H16        -7.9556   -4.5652    0.4233 H         1 <0>         0.4407
@<TRIPOS>BOND
     1    1    2 1
     2    1   27 1
     3    1   28 1
     4    1   29 1
     5    2    3 1
     6    2   30 1
     7    2   31 1
     8    3    8 ar
     9    3    4 ar
    10    4    5 ar
    11    4   32 1
    12    5    6 ar
    13    5   10 1
    14    6    7 ar
    15    6   33 1
    16    7    8 ar
    17    7   34 1
    18    8    9 1
    19    9   35 1
    20   10   11 1
    21   11   16 ar
    22   11   12 ar
    23   12   13 ar
    24   12   26 1
    25   13   14 ar
    26   13   36 1
    27   14   15 ar
    28   14   18 1
    29   15   16 ar
    30   15   37 1
    31   16   17 1
    32   18   19 1
    33   18   38 1
    34   18   39 1
    35   19   25 1
    36   19   20 1
    37   19   40 1
    38   20   21 2
    39   20   22 am
    40   22   23 am
    41   22   41 1
    42   23   24 2
    43   23   25 am
    44   25   42 1
@<TRIPOS>MOLECULE
CHEMBL192427
   40    41     0     0     0
SMALL
USER_CHARGES

@<TRIPOS>ATOM
      1 C1         -0.0167    1.3782    0.0096 C.ar      1 <0>        -0.0657
      2 C2          1.1704    2.0870    0.0021 C.ar      1 <0>        -0.0552
      3 C3          2.3791    1.4160   -0.0130 C.ar      1 <0>        -0.0656
      4 C4          2.4039    0.0338   -0.0211 C.ar      1 <0>        -0.1029
      5 C5          1.2139   -0.6802   -0.0135 C.ar      1 <0>         0.1336
      6 C6          0.0021   -0.0041    0.0020 C.ar      1 <0>        -0.1027
      7 Br1        -1.6220   -0.9726    0.0129 Br        1 <0>        -0.0346
      8 O1          1.2353   -2.0393   -0.0219 O.3       1 <0>        -0.3147
      9 C7          1.2581   -2.6956    1.2473 C.3       1 <0>         0.0687
     10 C8          1.2799   -4.2110    1.0375 C.3       1 <0>        -0.0794
     11 C9         -0.0271   -4.6533    0.3766 C.3       1 <0>        -0.1112
     12 C10        -0.0053   -6.1687    0.1668 C.3       1 <0>        -0.1196
     13 C11         0.1448   -6.8686    1.5190 C.3       1 <0>        -0.1207
     14 C12         1.4519   -6.4264    2.1799 C.3       1 <0>        -0.1162
     15 C13         1.4300   -4.9110    2.3897 C.3       1 <0>        -0.1132
     16 Br2         4.0576   -0.8830   -0.0430 Br        1 <0>        -0.0353
     17 C14         1.1467    3.5938    0.0099 C.3       1 <0>        -0.0604
     18 C15         1.1521    4.0965    1.4549 C.3       1 <0>        -0.1770
     19 C16         1.1284    5.6033    1.4627 C.2       1 <0>         0.4905
     20 O2          1.1090    6.2181    0.4100 O.co2     1 <0>        -0.6970
     21 O3          1.1287    6.2075    2.5216 O.co2     1 <0>        -0.7032
     22 H1         -0.9594    1.9048    0.0259 H         1 <0>         0.1437
     23 H2          3.3049    1.9722   -0.0189 H         1 <0>         0.1437
     24 H3          2.1488   -2.3921    1.7973 H         1 <0>         0.0561
     25 H4          0.3692   -2.4202    1.8148 H         1 <0>         0.0565
     26 H5          2.1198   -4.4769    0.3955 H         1 <0>         0.0808
     27 H6         -0.8670   -4.3874    1.0185 H         1 <0>         0.0604
     28 H7         -0.1341   -4.1547   -0.5868 H         1 <0>         0.0720
     29 H8         -0.9365   -6.4838   -0.3041 H         1 <0>         0.0600
     30 H9          0.8345   -6.4346   -0.4752 H         1 <0>         0.0609
     31 H10        -0.6951   -6.6028    2.1609 H         1 <0>         0.0607
     32 H11         0.1604   -7.9482    1.3695 H         1 <0>         0.0587
     33 H12         1.5588   -6.9250    3.1432 H         1 <0>         0.0619
     34 H13         2.2917   -6.6922    1.5380 H         1 <0>         0.0622
     35 H14         2.3612   -4.5959    2.8605 H         1 <0>         0.0642
     36 H15         0.5902   -4.6451    3.0316 H         1 <0>         0.0645
     37 H16         2.0260    3.9737   -0.5103 H         1 <0>         0.0790
     38 H17         0.2463    3.9456   -0.4938 H         1 <0>         0.0790
     39 H18         0.2728    3.7166    1.9751 H         1 <0>         0.0589
     40 H19         2.0525    3.7446    1.9586 H         1 <0>         0.0589
@<TRIPOS>BOND
     1    1    6 ar
     2    1    2 ar
     3    1   22 1
     4    2    3 ar
     5    2   17 1
     6    3    4 ar
     7    3   23 1
     8    4    5 ar
     9    4   16 1
    10    5    6 ar
    11    5    8 1
    12    6    7 1
    13    8    9 1
    14    9   10 1
    15    9   24 1
    16    9   25 1
    17   10   15 1
    18   10   11 1
    19   10   26 1
    20   11   12 1
    21   11   27 1
    22   11   28 1
    23   12   13 1
    24   12   29 1
    25   12   30 1
    26   13   14 1
    27   13   31 1
    28   13   32 1
    29   14   15 1
    30   14   33 1
    31   14   34 1
    32   15   35 1
    33   15   36 1
    34   17   18 1
    35   17   37 1
    36   17   38 1
    37   18   19 1
    38   18   39 1
    39   18   40 1
    40   19   20 2
    41   19   21 1
@<TRIPOS>MOLECULE
CHEMBL124145
   52    55     0     0     0
SMALL
USER_CHARGES

@<TRIPOS>ATOM
      1 C1         -1.0238    1.3049    0.1204 C.3       1 <0>        -0.1157
      2 C2         -0.4801   -0.0990    0.0549 C.ar      1 <0>        -0.0601
      3 C3         -0.4765   -0.7824   -1.1450 C.ar      1 <0>        -0.0872
      4 C4          0.0245   -2.0763   -1.2059 C.ar      1 <0>         0.1783
      5 C5          0.5221   -2.6827   -0.0593 C.ar      1 <0>        -0.0842
      6 C6          0.5182   -1.9984    1.1403 C.ar      1 <0>        -0.0278
      7 C7          0.0219   -0.7022    1.1988 C.ar      1 <0>         0.0895
      8 O1          0.0236   -0.0266    2.3783 O.3       1 <0>        -0.2378
      9 C8         -1.0667   -0.1432    3.1822 C.ar      1 <0>         0.0973
     10 C9         -2.1346   -0.9384    2.7919 C.ar      1 <0>        -0.1207
     11 C10        -3.2420   -1.0567    3.6085 C.ar      1 <0>        -0.1201
     12 C11        -3.2867   -0.3805    4.8190 C.ar      1 <0>         0.1794
     13 C12        -2.2195    0.4147    5.2090 C.ar      1 <0>        -0.6730
     14 C13        -1.1091    0.5283    4.3952 C.ar      1 <0>        -0.0290
     15 S1         -2.2767    1.2740    6.7462 S.o2      1 <0>         2.7012
     16 O2         -2.6727    0.3253    7.7273 O.2       1 <0>        -0.9470
     17 O3         -1.0661    2.0114    6.8446 O.2       1 <0>        -0.9491
     18 N1         -3.5003    2.3848    6.6410 N.pl3     1 <0>        -0.9929
     19 C14        -3.2475    3.7451    6.1400 C.3       1 <0>         0.0844
     20 C15        -4.2786    4.0583    5.0497 C.3       1 <0>         0.0481
     21 O4         -5.5909    3.8016    5.5553 O.3       1 <0>        -0.3772
     22 C16        -5.8247    2.4368    5.9109 C.3       1 <0>         0.0495
     23 C17        -4.8739    2.0389    7.0400 C.3       1 <0>         0.0901
     24 O5         -4.3771   -0.4970    5.6229 O.3       1 <0>        -0.4973
     25 Cl1         1.1392   -2.7557    2.5737 Cl        1 <0>        -0.0299
     26 N2          0.0278   -2.7696   -2.4226 N.am      1 <0>        -0.4032
     27 C18        -0.4549   -4.0239   -2.4730 C.2       1 <0>         0.6829
     28 O6         -0.8880   -4.5399   -1.4608 O.2       1 <0>        -0.5131
     29 N3         -0.4661   -4.7166   -3.6273 N.am      1 <0>        -0.6540
     30 H1         -0.8182   -5.6202   -3.6469 H         1 <0>         0.4393
     31 C19         0.0118   -4.1547   -4.7569 C.2       1 <0>         0.5166
     32 O7          0.0045   -4.7748   -5.8043 O.2       1 <0>        -0.4674
     33 C20         0.5391   -2.7887   -4.7073 C.2       1 <0>         0.0654
     34 N4          0.5281   -2.1459   -3.5718 N.2       1 <0>        -0.1664
     35 H2         -0.2210    2.0151   -0.0776 H         1 <0>         0.0887
     36 H3         -1.8084    1.4259   -0.6265 H         1 <0>         0.0786
     37 H4         -1.4354    1.4892    1.1127 H         1 <0>         0.0734
     38 H5         -0.8637   -0.3109   -2.0361 H         1 <0>         0.1496
     39 H6          0.9116   -3.6889   -0.1059 H         1 <0>         0.1505
     40 H7         -2.1000   -1.4645    1.8493 H         1 <0>         0.1386
     41 H8         -4.0734   -1.6753    3.3045 H         1 <0>         0.1452
     42 H9         -0.2758    1.1435    4.7013 H         1 <0>         0.1594
     43 H10        -3.3469    4.4612    6.9558 H         1 <0>         0.0873
     44 H11        -2.2424    3.8014    5.7219 H         1 <0>         0.0995
     45 H12        -4.1976    5.1066    4.7624 H         1 <0>         0.1076
     46 H13        -4.0931    3.4265    4.1810 H         1 <0>         0.0546
     47 H14        -6.8560    2.3186    6.2431 H         1 <0>         0.1058
     48 H15        -5.6448    1.7992    5.0453 H         1 <0>         0.0607
     49 H16        -4.9453    0.9658    7.2175 H         1 <0>         0.1078
     50 H17        -5.1398    2.5802    7.9479 H         1 <0>         0.0809
     51 H18        -4.3223   -1.2251    6.2570 H         1 <0>         0.4098
     52 H19         0.9268   -2.3187   -5.5990 H         1 <0>         0.2332
@<TRIPOS>BOND
     1    1    2 1
     2    1   35 1
     3    1   36 1
     4    1   37 1
     5    2    7 ar
     6    2    3 ar
     7    3    4 ar
     8    3   38 1
     9    4    5 ar
    10    4   26 1
    11    5    6 ar
    12    5   39 1
    13    6    7 ar
    14    6   25 1
    15    7    8 1
    16    8    9 1
    17    9   14 ar
    18    9   10 ar
    19   10   11 ar
    20   10   40 1
    21   11   12 ar
    22   11   41 1
    23   12   13 ar
    24   12   24 1
    25   13   14 ar
    26   13   15 1
    27   14   42 1
    28   15   16 2
    29   15   17 2
    30   15   18 1
    31   18   23 1
    32   18   19 1
    33   19   20 1
    34   19   43 1
    35   19   44 1
    36   20   21 1
    37   20   45 1
    38   20   46 1
    39   21   22 1
    40   22   23 1
    41   22   47 1
    42   22   48 1
    43   23   49 1
    44   23   50 1
    45   24   51 1
    46   26   34 1
    47   26   27 am
    48   27   28 2
    49   27   29 am
    50   29   30 1
    51   29   31 am
    52   31   32 2
    53   31   33 1
    54   33   34 2
    55   33   52 1
@<TRIPOS>MOLECULE
CHEMBL124145__1
   51    54     0     0     0
SMALL
USER_CHARGES

@<TRIPOS>ATOM
      1 C1         -1.0277    1.3034    0.1212 C.3       1 <0>        -0.1096
      2 C2         -0.4819   -0.0998    0.0553 C.ar      1 <0>        -0.0652
      3 C3         -0.4784   -0.7831   -1.1444 C.ar      1 <0>        -0.0992
      4 C4          0.0245   -2.0764   -1.2057 C.ar      1 <0>         0.1935
      5 C5          0.5240   -2.6821   -0.0593 C.ar      1 <0>        -0.0824
      6 C6          0.5201   -1.9979    1.1401 C.ar      1 <0>        -0.0253
      7 C7          0.0219   -0.7023    1.1989 C.ar      1 <0>         0.0649
      8 O1          0.0236   -0.0267    2.3783 O.3       1 <0>        -0.2365
      9 C8         -1.0658   -0.1448    3.1831 C.ar      1 <0>         0.1038
     10 C9         -2.1330   -0.9416    2.7937 C.ar      1 <0>        -0.1180
     11 C10        -3.2395   -1.0614    3.6112 C.ar      1 <0>        -0.1186
     12 C11        -3.2842   -0.3853    4.8217 C.ar      1 <0>         0.1716
     13 C12        -2.2178    0.4115    5.2108 C.ar      1 <0>        -0.6742
     14 C13        -1.1082    0.5267    4.3960 C.ar      1 <0>        -0.0355
     15 S1         -2.2753    1.2711    6.7478 S.o2      1 <0>         2.7033
     16 O2         -2.6694    0.3222    7.7294 O.2       1 <0>        -0.9502
     17 O3         -1.0655    2.0102    6.8452 O.2       1 <0>        -0.9519
     18 N1         -3.5004    2.3803    6.6430 N.pl3     1 <0>        -0.9938
     19 C14        -3.2497    3.7408    6.1414 C.3       1 <0>         0.0854
     20 C15        -4.2819    4.0522    5.0516 C.3       1 <0>         0.0473
     21 O4         -5.5936    3.7940    5.5581 O.3       1 <0>        -0.3787
     22 C16        -5.8252    2.4289    5.9142 C.3       1 <0>         0.0488
     23 C17        -4.8732    2.0327    7.0429 C.3       1 <0>         0.0912
     24 O5         -4.3738   -0.5034    5.6265 O.3       1 <0>        -0.4987
     25 Cl1         1.1434   -2.7541    2.5730 Cl        1 <0>        -0.0462
     26 N2          0.0278   -2.7694   -2.4218 N.am      1 <0>        -0.3714
     27 C18        -0.4561   -4.0237   -2.4665 C.2       1 <0>         0.6169
     28 O6         -0.8908   -4.5418   -1.4511 O.2       1 <0>        -0.5717
     29 N3         -0.4645   -4.7060   -3.6153 N.2       1 <0>        -0.6252
     30 C19         0.0110   -4.1307   -4.7113 C.2       1 <0>         0.4334
     31 O7          0.0168   -4.7931   -5.8898 O.3       1 <0>        -0.6463
     32 C20         0.5108   -2.8130   -4.6242 C.2       1 <0>         0.0033
     33 N4          0.4887   -2.1916   -3.4751 N.2       1 <0>        -0.2203
     34 H1         -0.2261    2.0147   -0.0775 H         1 <0>         0.0827
     35 H2         -1.8131    1.4232   -0.6250 H         1 <0>         0.0749
     36 H3         -1.4387    1.4871    1.1139 H         1 <0>         0.0678
     37 H4         -0.8670   -0.3121   -2.0353 H         1 <0>         0.1446
     38 H5          0.9149   -3.6878   -0.1062 H         1 <0>         0.1502
     39 H6         -2.0984   -1.4677    1.8511 H         1 <0>         0.1427
     40 H7         -4.0703   -1.6813    3.3079 H         1 <0>         0.1443
     41 H8         -0.2756    1.1431    4.7014 H         1 <0>         0.1570
     42 H9         -3.3495    4.4570    6.9570 H         1 <0>         0.0852
     43 H10        -2.2450    3.7983    5.7226 H         1 <0>         0.0996
     44 H11        -4.2025    5.1005    4.7639 H         1 <0>         0.1067
     45 H12        -4.0961    3.4204    4.1830 H         1 <0>         0.0567
     46 H13        -6.8563    2.3095    6.2471 H         1 <0>         0.1046
     47 H14        -5.6451    1.7913    5.0487 H         1 <0>         0.0626
     48 H15        -4.9432    0.9596    7.2208 H         1 <0>         0.1079
     49 H16        -5.1393    2.5739    7.9508 H         1 <0>         0.0785
     50 H17        -4.3173   -1.2314    6.2606 H         1 <0>         0.4068
     51 H18         0.9042   -2.3210   -5.5015 H         1 <0>         0.1829
@<TRIPOS>BOND
     1    1    2 1
     2    1   34 1
     3    1   35 1
     4    1   36 1
     5    2    7 ar
     6    2    3 ar
     7    3    4 ar
     8    3   37 1
     9    4    5 ar
    10    4   26 1
    11    5    6 ar
    12    5   38 1
    13    6    7 ar
    14    6   25 1
    15    7    8 1
    16    8    9 1
    17    9   14 ar
    18    9   10 ar
    19   10   11 ar
    20   10   39 1
    21   11   12 ar
    22   11   40 1
    23   12   13 ar
    24   12   24 1
    25   13   14 ar
    26   13   15 1
    27   14   41 1
    28   15   16 2
    29   15   17 2
    30   15   18 1
    31   18   23 1
    32   18   19 1
    33   19   20 1
    34   19   42 1
    35   19   43 1
    36   20   21 1
    37   20   44 1
    38   20   45 1
    39   21   22 1
    40   22   23 1
    41   22   46 1
    42   22   47 1
    43   23   48 1
    44   23   49 1
    45   24   50 1
    46   26   33 1
    47   26   27 am
    48   27   28 2
    49   27   29 1
    50   29   30 2
    51   30   31 1
    52   30   32 1
    53   32   33 2
    54   32   51 1
@<TRIPOS>MOLECULE
CHEMBL124145__2
   51    54     0     0     0
SMALL
USER_CHARGES

@<TRIPOS>ATOM
      1 C1         -1.0238    1.3049    0.1204 C.3       1 <0>        -0.1120
      2 C2         -0.4801   -0.0990    0.0549 C.ar      1 <0>        -0.0726
      3 C3         -0.4765   -0.7824   -1.1450 C.ar      1 <0>        -0.0866
      4 C4          0.0245   -2.0763   -1.2059 C.ar      1 <0>         0.1512
      5 C5          0.5221   -2.6827   -0.0593 C.ar      1 <0>        -0.0840
      6 C6          0.5182   -1.9984    1.1403 C.ar      1 <0>        -0.0365
      7 C7          0.0219   -0.7022    1.1988 C.ar      1 <0>         0.1305
      8 O1          0.0236   -0.0266    2.3783 O.3       1 <0>        -0.2576
      9 C8         -1.0667   -0.1432    3.1822 C.ar      1 <0>        -0.0382
     10 C9         -2.1346   -0.9384    2.7919 C.ar      1 <0>        -0.0903
     11 C10        -3.2420   -1.0567    3.6085 C.ar      1 <0>        -0.2203
     12 C11        -3.2867   -0.3805    4.8190 C.ar      1 <0>         0.3329
     13 C12        -2.2195    0.4147    5.2090 C.ar      1 <0>        -0.7969
     14 C13        -1.1091    0.5283    4.3952 C.ar      1 <0>         0.0102
     15 S1         -2.2767    1.2740    6.7462 S.o2      1 <0>         2.7146
     16 O2         -2.6727    0.3253    7.7273 O.2       1 <0>        -0.9601
     17 O3         -1.0661    2.0114    6.8446 O.2       1 <0>        -0.9947
     18 N1         -3.5003    2.3848    6.6410 N.pl3     1 <0>        -0.9964
     19 C14        -3.2475    3.7451    6.1400 C.3       1 <0>         0.0905
     20 C15        -4.2786    4.0583    5.0497 C.3       1 <0>         0.0497
     21 O4         -5.5909    3.8016    5.5553 O.3       1 <0>        -0.3887
     22 C16        -5.8247    2.4368    5.9109 C.3       1 <0>         0.0525
     23 C17        -4.8739    2.0389    7.0400 C.3       1 <0>         0.0961
     24 O5         -4.3771   -0.4970    5.6229 O.3       1 <0>        -0.6885
     25 Cl1         1.1392   -2.7557    2.5737 Cl        1 <0>        -0.0346
     26 N2          0.0278   -2.7696   -2.4226 N.am      1 <0>        -0.3940
     27 C18        -0.4549   -4.0239   -2.4730 C.2       1 <0>         0.6785
     28 O6         -0.8880   -4.5399   -1.4608 O.2       1 <0>        -0.5078
     29 N3         -0.4661   -4.7166   -3.6273 N.am      1 <0>        -0.6544
     30 H1         -0.8182   -5.6202   -3.6469 H         1 <0>         0.4369
     31 C19         0.0118   -4.1547   -4.7569 C.2       1 <0>         0.5193
     32 O7          0.0045   -4.7748   -5.8043 O.2       1 <0>        -0.4792
     33 C20         0.5391   -2.7887   -4.7073 C.2       1 <0>         0.0502
     34 N4          0.5281   -2.1459   -3.5718 N.2       1 <0>        -0.1601
     35 H2         -0.2210    2.0151   -0.0776 H         1 <0>         0.0798
     36 H3         -1.8084    1.4259   -0.6265 H         1 <0>         0.0703
     37 H4         -1.4354    1.4892    1.1127 H         1 <0>         0.0826
     38 H5         -0.8637   -0.3109   -2.0361 H         1 <0>         0.1416
     39 H6          0.9116   -3.6889   -0.1059 H         1 <0>         0.1427
     40 H7         -2.1000   -1.4645    1.8493 H         1 <0>         0.1020
     41 H8         -4.0734   -1.6753    3.3045 H         1 <0>         0.1085
     42 H9         -0.2758    1.1435    4.7013 H         1 <0>         0.1232
     43 H10        -3.3469    4.4612    6.9558 H         1 <0>         0.0714
     44 H11        -2.2424    3.8014    5.7219 H         1 <0>         0.0928
     45 H12        -4.1976    5.1066    4.7624 H         1 <0>         0.0965
     46 H13        -4.0931    3.4265    4.1810 H         1 <0>         0.0555
     47 H14        -6.8560    2.3186    6.2431 H         1 <0>         0.0957
     48 H15        -5.6448    1.7992    5.0453 H         1 <0>         0.0666
     49 H16        -4.9453    0.9658    7.2175 H         1 <0>         0.1232
     50 H17        -5.1398    2.5802    7.9479 H         1 <0>         0.0590
     51 H18         0.9268   -2.3187   -5.5990 H         1 <0>         0.2293
@<TRIPOS>BOND
     1    1    2 1
     2    1   35 1
     3    1   36 1
     4    1   37 1
     5    2    7 ar
     6    2    3 ar
     7    3    4 ar
     8    3   38 1
     9    4    5 ar
    10    4   26 1
    11    5    6 ar
    12    5   39 1
    13    6    7 ar
    14    6   25 1
    15    7    8 1
    16    8    9 1
    17    9   14 ar
    18    9   10 ar
    19   10   11 ar
    20   10   40 1
    21   11   12 ar
    22   11   41 1
    23   12   13 ar
    24   12   24 1
    25   13   14 ar
    26   13   15 1
    27   14   42 1
    28   15   16 2
    29   15   17 2
    30   15   18 1
    31   18   23 1
    32   18   19 1
    33   19   20 1
    34   19   43 1
    35   19   44 1
    36   20   21 1
    37   20   45 1
    38   20   46 1
    39   21   22 1
    40   22   23 1
    41   22   47 1
    42   22   48 1
    43   23   49 1
    44   23   50 1
    45   26   34 1
    46   26   27 am
    47   27   28 2
    48   27   29 am
    49   29   30 1
    50   29   31 am
    51   31   32 2
    52   31   33 1
    53   33   34 2
    54   33   51 1
@<TRIPOS>MOLECULE
CHEMBL203828
   42    44     0     0     0
SMALL
USER_CHARGES

@<TRIPOS>ATOM
      1 C1         -0.0187    1.5258    0.0104 C.3       1 <0>        -0.1432
      2 C2          0.0021   -0.0041    0.0020 C.3       1 <0>        -0.0542
      3 C3          0.7421   -0.5109    1.2415 C.3       1 <0>        -0.1454
      4 C4         -1.4117   -0.5257    0.0127 C.ar      1 <0>        -0.0642
      5 C5         -2.2586   -0.2044    1.0558 C.ar      1 <0>        -0.1232
      6 C6         -3.5600   -0.6842    1.0654 C.ar      1 <0>         0.1295
      7 C7         -4.0111   -1.4867    0.0273 C.ar      1 <0>        -0.1756
      8 C8         -3.1643   -1.8077   -1.0153 C.ar      1 <0>        -0.0994
      9 C9         -1.8644   -1.3235   -1.0275 C.ar      1 <0>         0.0698
     10 O1         -1.0323   -1.6354   -2.0567 O.3       1 <0>        -0.4935
     11 O2         -4.3934   -0.3684    2.0921 O.3       1 <0>        -0.2394
     12 C10        -5.6599   -0.8604    2.0603 C.ar      1 <0>         0.1232
     13 C11        -6.6721   -0.1383    1.4427 C.ar      1 <0>        -0.1020
     14 C12        -7.9571   -0.6430    1.4128 C.ar      1 <0>        -0.0604
     15 C13        -8.2413   -1.8668    1.9968 C.ar      1 <0>        -0.0708
     16 C14        -7.2352   -2.5882    2.6125 C.ar      1 <0>        -0.0346
     17 C15        -5.9440   -2.0879    2.6396 C.ar      1 <0>        -0.0876
     18 Br1        -4.5664   -3.0777    3.4754 Br        1 <0>        -0.0261
     19 C16        -7.7974   -3.8797    3.1669 C.3       1 <0>        -0.0619
     20 C17        -9.1491   -4.0736    2.4476 C.3       1 <0>        -0.1537
     21 C18        -9.5481   -2.6247    2.0960 C.3       1 <0>        -0.0588
     22 C19       -10.1625   -4.6991    3.3711 C.2       1 <0>         0.5023
     23 O3        -11.3481   -4.4506    3.2333 O.co2     1 <0>        -0.6930
     24 O4         -9.7967   -5.4538    4.2561 O.co2     1 <0>        -0.6911
     25 Br2        -6.2919    1.5333    0.6445 Br        1 <0>        -0.0280
     26 H1          1.0039    1.9031    0.0027 H         1 <0>         0.0579
     27 H2         -0.5459    1.8868   -0.8726 H         1 <0>         0.0564
     28 H3         -0.5289    1.8773    0.9072 H         1 <0>         0.0577
     29 H4          0.5123   -0.3556   -0.8948 H         1 <0>         0.0864
     30 H5          0.2319   -0.1594    2.1383 H         1 <0>         0.0587
     31 H6          0.7568   -1.6008    1.2356 H         1 <0>         0.0549
     32 H7          1.7647   -0.1336    1.2338 H         1 <0>         0.0584
     33 H8         -1.9072    0.4200    1.8639 H         1 <0>         0.1352
     34 H9         -5.0243   -1.8606    0.0348 H         1 <0>         0.1281
     35 H10        -3.5154   -2.4324   -1.8233 H         1 <0>         0.1313
     36 H11        -0.5229   -2.4458   -1.9190 H         1 <0>         0.3837
     37 H12        -8.7443   -0.0809    0.9323 H         1 <0>         0.1440
     38 H13        -7.1277   -4.7103    2.9438 H         1 <0>         0.0796
     39 H14        -7.9503   -3.7946    4.2428 H         1 <0>         0.0991
     40 H15        -9.0253   -4.6713    1.5446 H         1 <0>         0.0782
     41 H16       -10.1714   -2.2022    2.8841 H         1 <0>         0.0935
     42 H17       -10.0740   -2.5982    1.1417 H         1 <0>         0.0783
@<TRIPOS>BOND
     1    1    2 1
     2    1   26 1
     3    1   27 1
     4    1   28 1
     5    2    3 1
     6    2    4 1
     7    2   29 1
     8    3   30 1
     9    3   31 1
    10    3   32 1
    11    4    9 ar
    12    4    5 ar
    13    5    6 ar
    14    5   33 1
    15    6    7 ar
    16    6   11 1
    17    7    8 ar
    18    7   34 1
    19    8    9 ar
    20    8   35 1
    21    9   10 1
    22   10   36 1
    23   11   12 1
    24   12   17 ar
    25   12   13 ar
    26   13   14 ar
    27   13   25 1
    28   14   15 ar
    29   14   37 1
    30   15   21 1
    31   15   16 ar
    32   16   17 ar
    33   16   19 1
    34   17   18 1
    35   19   20 1
    36   19   38 1
    37   19   39 1
    38   20   21 1
    39   20   22 1
    40   20   40 1
    41   21   41 1
    42   21   42 1
    43   22   23 2
    44   22   24 1
@<TRIPOS>MOLECULE
CHEMBL203828__1
   42    44     0     0     0
SMALL
USER_CHARGES

@<TRIPOS>ATOM
      1 C1         -0.0187    1.5258    0.0104 C.3       1 <0>        -0.1431
      2 C2          0.0021   -0.0041    0.0020 C.3       1 <0>        -0.0541
      3 C3          0.7421   -0.5109    1.2415 C.3       1 <0>        -0.1453
      4 C4         -1.4117   -0.5257    0.0127 C.ar      1 <0>        -0.0648
      5 C5         -2.2586   -0.2044    1.0558 C.ar      1 <0>        -0.1233
      6 C6         -3.5600   -0.6842    1.0654 C.ar      1 <0>         0.1288
      7 C7         -4.0111   -1.4867    0.0273 C.ar      1 <0>        -0.1750
      8 C8         -3.1643   -1.8077   -1.0153 C.ar      1 <0>        -0.0989
      9 C9         -1.8644   -1.3235   -1.0275 C.ar      1 <0>         0.0703
     10 O1         -1.0323   -1.6354   -2.0567 O.3       1 <0>        -0.4935
     11 O2         -4.3934   -0.3684    2.0921 O.3       1 <0>        -0.2399
     12 C10        -5.6599   -0.8604    2.0603 C.ar      1 <0>         0.1244
     13 C11        -6.6721   -0.1383    1.4427 C.ar      1 <0>        -0.1024
     14 C12        -7.9570   -0.6430    1.4127 C.ar      1 <0>        -0.0600
     15 C13        -8.2412   -1.8671    1.9963 C.ar      1 <0>        -0.0682
     16 C14        -7.2351   -2.5884    2.6121 C.ar      1 <0>        -0.0283
     17 C15        -5.9440   -2.0879    2.6396 C.ar      1 <0>        -0.0885
     18 Br1        -4.5663   -3.0780    3.4749 Br        1 <0>        -0.0267
     19 C16        -7.7975   -3.8796    3.1671 C.3       1 <0>        -0.0708
     20 C17        -9.3258   -3.6691    3.2102 C.3       1 <0>        -0.1540
     21 C18        -9.5480   -2.6250    2.0955 C.3       1 <0>        -0.0625
     22 C19       -10.0523   -4.9514    2.8955 C.2       1 <0>         0.5028
     23 O3        -11.0582   -5.2502    3.5162 O.co2     1 <0>        -0.6936
     24 O4         -9.6340   -5.6900    2.0203 O.co2     1 <0>        -0.6900
     25 Br2        -6.2919    1.5334    0.6447 Br        1 <0>        -0.0277
     26 H1          1.0039    1.9031    0.0027 H         1 <0>         0.0578
     27 H2         -0.5459    1.8868   -0.8726 H         1 <0>         0.0564
     28 H3         -0.5289    1.8773    0.9072 H         1 <0>         0.0575
     29 H4          0.5123   -0.3556   -0.8948 H         1 <0>         0.0864
     30 H5          0.2319   -0.1594    2.1383 H         1 <0>         0.0585
     31 H6          0.7568   -1.6008    1.2356 H         1 <0>         0.0549
     32 H7          1.7647   -0.1336    1.2338 H         1 <0>         0.0582
     33 H8         -1.9072    0.4200    1.8639 H         1 <0>         0.1349
     34 H9         -5.0243   -1.8606    0.0348 H         1 <0>         0.1286
     35 H10        -3.5154   -2.4324   -1.8233 H         1 <0>         0.1320
     36 H11        -0.5229   -2.4458   -1.9190 H         1 <0>         0.3839
     37 H12        -8.7443   -0.0809    0.9324 H         1 <0>         0.1439
     38 H13        -7.5489   -4.7135    2.5106 H         1 <0>         0.1082
     39 H14        -7.4120   -4.0595    4.1707 H         1 <0>         0.0763
     40 H15        -9.6355   -3.2745    4.1779 H         1 <0>         0.0758
     41 H16       -10.3580   -1.9482    2.3672 H         1 <0>         0.0778
     42 H17        -9.7698   -3.1216    1.1509 H         1 <0>         0.0931
@<TRIPOS>BOND
     1    1    2 1
     2    1   26 1
     3    1   27 1
     4    1   28 1
     5    2    3 1
     6    2    4 1
     7    2   29 1
     8    3   30 1
     9    3   31 1
    10    3   32 1
    11    4    9 ar
    12    4    5 ar
    13    5    6 ar
    14    5   33 1
    15    6    7 ar
    16    6   11 1
    17    7    8 ar
    18    7   34 1
    19    8    9 ar
    20    8   35 1
    21    9   10 1
    22   10   36 1
    23   11   12 1
    24   12   17 ar
    25   12   13 ar
    26   13   14 ar
    27   13   25 1
    28   14   15 ar
    29   14   37 1
    30   15   21 1
    31   15   16 ar
    32   16   17 ar
    33   16   19 1
    34   17   18 1
    35   19   20 1
    36   19   38 1
    37   19   39 1
    38   20   21 1
    39   20   22 1
    40   20   40 1
    41   21   41 1
    42   21   42 1
    43   22   23 2
    44   22   24 1
@<TRIPOS>MOLECULE
CHEMBL111953
   59    61     0     0     0
SMALL
USER_CHARGES

@<TRIPOS>ATOM
      1 C1          0.1624   -2.8699    2.2375 C.3       1 <0>        -0.1174
      2 C2          0.0579   -2.0052    1.0077 C.ar      1 <0>        -0.0383
      3 C3          0.1294   -2.5785   -0.2471 C.ar      1 <0>        -0.1646
      4 C4          0.0331   -1.7819   -1.3789 C.ar      1 <0>         0.1480
      5 C5         -0.1348   -0.4111   -1.2472 C.ar      1 <0>        -0.2202
      6 C6         -0.2057    0.1573    0.0099 C.ar      1 <0>        -0.0356
      7 C7         -0.1151   -0.6395    1.1363 C.ar      1 <0>        -0.1376
      8 C8         -0.1995   -0.0176    2.5064 C.3       1 <0>        -0.0366
      9 C9         -1.6369    0.0094    2.9582 C.ar      1 <0>        -0.0685
     10 C10        -2.4270    1.1026    2.6697 C.ar      1 <0>        -0.0815
     11 C11        -3.7595    1.1281    3.0877 C.ar      1 <0>        -0.0106
     12 C12        -4.2838    0.0391    3.7990 C.ar      1 <0>         0.1234
     13 C13        -3.4762   -1.0501    4.0798 C.ar      1 <0>        -0.0963
     14 C14        -2.1602   -1.0654    3.6559 C.ar      1 <0>        -0.0862
     15 C15        -4.0340   -2.2230    4.8442 C.3       1 <0>        -0.0548
     16 C16        -3.9312   -3.4860    3.9868 C.3       1 <0>        -0.1465
     17 C17        -3.2359   -2.4165    6.1351 C.3       1 <0>        -0.1422
     18 O1         -5.5778    0.0529    4.2110 O.3       1 <0>        -0.4897
     19 C18        -4.5855    2.2600    2.7922 C.1       1 <0>        -0.0974
     20 C19        -5.2626    3.1879    2.5498 C.1       1 <0>        -0.1248
     21 C20        -6.0885    4.3198    2.2543 C.ar      1 <0>         0.0194
     22 C21        -5.5670    5.4024    1.5409 C.ar      1 <0>        -0.0962
     23 C22        -6.3684    6.4890    1.2600 C.ar      1 <0>        -0.1186
     24 C23        -7.6860    6.5090    1.6826 C.ar      1 <0>        -0.1129
     25 C24        -8.2094    5.4407    2.3895 C.ar      1 <0>        -0.1195
     26 C25        -7.4216    4.3446    2.6728 C.ar      1 <0>        -0.0956
     27 C26        -0.3880    1.6463    0.1537 C.3       1 <0>        -0.1197
     28 O2          0.1036   -2.3434   -2.6144 O.3       1 <0>        -0.2812
     29 C27        -0.0030   -1.4624   -3.7345 C.3       1 <0>        -0.0058
     30 C28         0.0962   -2.2579   -5.0106 C.2       1 <0>         0.5010
     31 O3          0.2445   -3.4672   -4.9651 O.co2     1 <0>        -0.6709
     32 O4          0.0282   -1.6921   -6.0884 O.co2     1 <0>        -0.6877
     33 H1         -0.8369   -3.1504    2.5705 H         1 <0>         0.0706
     34 H2          0.7325   -3.7686    2.0024 H         1 <0>         0.0673
     35 H3          0.6670   -2.3162    3.0292 H         1 <0>         0.0690
     36 H4          0.2604   -3.6458   -0.3470 H         1 <0>         0.1282
     37 H5         -0.2096    0.2112   -2.1267 H         1 <0>         0.1264
     38 H6          0.3913   -0.6052    3.2091 H         1 <0>         0.0835
     39 H7          0.1884    1.0003    2.4679 H         1 <0>         0.0819
     40 H8         -2.0159    1.9376    2.1218 H         1 <0>         0.1318
     41 H9         -1.5359   -1.9193    3.8737 H         1 <0>         0.1325
     42 H10        -5.0793   -2.0336    5.0883 H         1 <0>         0.0844
     43 H11        -4.3346   -4.3343    4.5397 H         1 <0>         0.0591
     44 H12        -4.4998   -3.3481    3.0672 H         1 <0>         0.0558
     45 H13        -2.8859   -3.6753    3.7428 H         1 <0>         0.0586
     46 H14        -3.3092   -1.5168    6.7460 H         1 <0>         0.0556
     47 H15        -3.6393   -3.2649    6.6880 H         1 <0>         0.0583
     48 H16        -2.1906   -2.6059    5.8911 H         1 <0>         0.0570
     49 H17        -6.1985   -0.3210    3.5705 H         1 <0>         0.3885
     50 H18        -4.5388    5.3883    1.2107 H         1 <0>         0.1272
     51 H19        -5.9667    7.3266    0.7091 H         1 <0>         0.1280
     52 H20        -8.3088    7.3628    1.4600 H         1 <0>         0.1251
     53 H21        -9.2385    5.4633    2.7161 H         1 <0>         0.1274
     54 H22        -7.8328    3.5094    3.2203 H         1 <0>         0.1268
     55 H23        -1.4467    1.8721    0.2814 H         1 <0>         0.0700
     56 H24         0.1660    1.9979    1.0241 H         1 <0>         0.0692
     57 H25        -0.0153    2.1461   -0.7404 H         1 <0>         0.0656
     58 H26        -0.9629   -0.9471   -3.7013 H         1 <0>         0.0582
     59 H27         0.8038   -0.7303   -3.6990 H         1 <0>         0.0587
@<TRIPOS>BOND
     1    1    2 1
     2    1   33 1
     3    1   34 1
     4    1   35 1
     5    2    7 ar
     6    2    3 ar
     7    3    4 ar
     8    3   36 1
     9    4    5 ar
    10    4   28 1
    11    5    6 ar
    12    5   37 1
    13    6    7 ar
    14    6   27 1
    15    7    8 1
    16    8    9 1
    17    8   38 1
    18    8   39 1
    19    9   14 ar
    20    9   10 ar
    21   10   11 ar
    22   10   40 1
    23   11   12 ar
    24   11   19 1
    25   12   13 ar
    26   12   18 1
    27   13   14 ar
    28   13   15 1
    29   14   41 1
    30   15   16 1
    31   15   17 1
    32   15   42 1
    33   16   43 1
    34   16   44 1
    35   16   45 1
    36   17   46 1
    37   17   47 1
    38   17   48 1
    39   18   49 1
    40   19   20 3
    41   20   21 1
    42   21   26 ar
    43   21   22 ar
    44   22   23 ar
    45   22   50 1
    46   23   24 ar
    47   23   51 1
    48   24   25 ar
    49   24   52 1
    50   25   26 ar
    51   25   53 1
    52   26   54 1
    53   27   55 1
    54   27   56 1
    55   27   57 1
    56   28   29 1
    57   29   30 1
    58   29   58 1
    59   29   59 1
    60   30   31 2
    61   30   32 1
@<TRIPOS>MOLECULE
CHEMBL361162
   47    49     0     0     0
SMALL
USER_CHARGES

@<TRIPOS>ATOM
      1 C1         -0.0187    1.5258    0.0104 C.3       1 <0>        -0.1420
      2 C2          0.0021   -0.0041    0.0020 C.3       1 <0>        -0.0217
      3 C3          0.7421   -0.5109    1.2415 C.3       1 <0>        -0.1419
      4 C4         -1.4117   -0.5257    0.0127 C.2       1 <0>        -0.1651
      5 C5         -2.3402   -0.2960    0.9546 C.2       1 <0>         0.0572
      6 N1         -3.5057   -0.9326    0.6260 N.pl3     1 <0>        -0.5950
      7 H1         -4.3194   -0.9129    1.1536 H         1 <0>         0.4149
      8 C6         -3.3513   -1.6056   -0.5676 C.ar      1 <0>         0.0747
      9 C7         -2.0350   -1.3742   -1.0060 C.ar      1 <0>        -0.0690
     10 C8         -1.5904   -1.9334   -2.2056 C.ar      1 <0>        -0.0973
     11 C9         -2.4512   -2.7092   -2.9570 C.ar      1 <0>         0.0979
     12 C10        -3.7549   -2.9332   -2.5221 C.ar      1 <0>        -0.1452
     13 C11        -4.2010   -2.3939   -1.3360 C.ar      1 <0>        -0.0888
     14 O1         -2.0240   -3.2560   -4.1264 O.3       1 <0>        -0.2561
     15 C12        -2.9024   -4.0126   -4.8352 C.ar      1 <0>         0.1606
     16 C13        -2.9897   -5.3777   -4.6022 C.ar      1 <0>        -0.1946
     17 C14        -3.8838   -6.1445   -5.3238 C.ar      1 <0>        -0.0286
     18 C15        -4.6910   -5.5530   -6.2779 C.ar      1 <0>        -0.0147
     19 C16        -4.6057   -4.1930   -6.5124 C.ar      1 <0>        -0.0288
     20 C17        -3.7177   -3.4206   -5.7892 C.ar      1 <0>        -0.1943
     21 C18        -3.6297   -1.9373   -6.0409 C.3       1 <0>         0.5161
     22 F1         -4.5421   -1.5787   -7.0390 F         1 <0>        -0.1744
     23 F2         -3.9314   -1.2457   -4.8629 F         1 <0>        -0.1687
     24 F3         -2.3338   -1.6106   -6.4546 F         1 <0>        -0.1710
     25 C19        -5.6652   -6.3921   -7.0640 C.3       1 <0>        -0.1633
     26 C20        -6.9858   -6.4398   -6.3396 C.2       1 <0>         0.4979
     27 O2         -7.1232   -5.8473   -5.2829 O.co2     1 <0>        -0.6853
     28 O3         -7.9168   -7.0709   -6.8102 O.co2     1 <0>        -0.6915
     29 C21        -2.1095   -6.0232   -3.5632 C.3       1 <0>         0.5160
     30 F4         -2.3783   -7.3952   -3.5115 F         1 <0>        -0.1745
     31 F5         -0.7665   -5.8235   -3.9004 F         1 <0>        -0.1710
     32 F6         -2.3666   -5.4503   -2.3130 F         1 <0>        -0.1687
     33 H2          1.0039    1.9031    0.0027 H         1 <0>         0.0539
     34 H3         -0.5459    1.8868   -0.8726 H         1 <0>         0.0555
     35 H4         -0.5289    1.8773    0.9072 H         1 <0>         0.0517
     36 H5          0.5123   -0.3556   -0.8948 H         1 <0>         0.0761
     37 H6          1.7647   -0.1336    1.2338 H         1 <0>         0.0539
     38 H7          0.2319   -0.1594    2.1383 H         1 <0>         0.0516
     39 H8          0.7568   -1.6008    1.2356 H         1 <0>         0.0555
     40 H9         -2.1894    0.3025    1.8408 H         1 <0>         0.1655
     41 H10        -0.5796   -1.7600   -2.5441 H         1 <0>         0.1300
     42 H11        -4.4203   -3.5411   -3.1172 H         1 <0>         0.1332
     43 H12        -5.2148   -2.5725   -1.0092 H         1 <0>         0.1264
     44 H13        -3.9521   -7.2070   -5.1429 H         1 <0>         0.1498
     45 H14        -5.2371   -3.7334   -7.2585 H         1 <0>         0.1499
     46 H15        -5.8081   -5.9535   -8.0516 H         1 <0>         0.0816
     47 H16        -5.2716   -7.4032   -7.1690 H         1 <0>         0.0816
@<TRIPOS>BOND
     1    1    2 1
     2    1   33 1
     3    1   34 1
     4    1   35 1
     5    2    3 1
     6    2    4 1
     7    2   36 1
     8    3   37 1
     9    3   38 1
    10    3   39 1
    11    4    9 1
    12    4    5 2
    13    5    6 1
    14    5   40 1
    15    6    7 1
    16    6    8 1
    17    8   13 ar
    18    8    9 ar
    19    9   10 ar
    20   10   11 ar
    21   10   41 1
    22   11   12 ar
    23   11   14 1
    24   12   13 ar
    25   12   42 1
    26   13   43 1
    27   14   15 1
    28   15   20 ar
    29   15   16 ar
    30   16   17 ar
    31   16   29 1
    32   17   18 ar
    33   17   44 1
    34   18   19 ar
    35   18   25 1
    36   19   20 ar
    37   19   45 1
    38   20   21 1
    39   21   22 1
    40   21   23 1
    41   21   24 1
    42   25   26 1
    43   25   46 1
    44   25   47 1
    45   26   27 2
    46   26   28 1
    47   29   30 1
    48   29   31 1
    49   29   32 1
@<TRIPOS>MOLECULE
CHEMBL562247
   58    59     0     0     0
SMALL
USER_CHARGES

@<TRIPOS>ATOM
      1 C1         -0.0187    1.5258    0.0104 C.3       1 <0>        -0.1550
      2 C2          0.0021   -0.0041    0.0020 C.3       1 <0>        -0.1256
      3 C3          0.7421   -0.5109    1.2415 C.3       1 <0>        -0.1203
      4 C4          0.7628   -2.0407    1.2331 C.3       1 <0>        -0.1169
      5 C5          1.5028   -2.5476    2.4727 C.3       1 <0>        -0.1202
      6 C6          1.5236   -4.0774    2.4642 C.3       1 <0>         0.0537
      7 O1          2.2147   -4.5508    3.6219 O.3       1 <0>        -0.2931
      8 C7          2.3233   -5.8954    3.7677 C.ar      1 <0>         0.1892
      9 C8          1.7783   -6.7425    2.8085 C.ar      1 <0>        -0.2104
     10 C9          1.8825   -8.0971    2.9466 C.ar      1 <0>        -0.0134
     11 C10         2.5409   -8.6401    4.0572 C.ar      1 <0>        -0.1967
     12 C11         3.0913   -7.7881    5.0249 C.ar      1 <0>         0.0555
     13 C12         2.9842   -6.4214    4.8726 C.ar      1 <0>        -0.0890
     14 Cl1         3.6680   -5.3587    6.0629 Cl        1 <0>        -0.0261
     15 Cl2         3.9090   -8.4501    6.4057 Cl        1 <0>        -0.0017
     16 C13         2.6536  -10.0957    4.2077 C.2       1 <0>         0.3956
     17 O2          3.2243  -10.5636    5.1705 O.2       1 <0>        -0.4302
     18 C14         2.0605  -11.0091    3.1661 C.3       1 <0>        -0.1609
     19 C15         2.3155  -12.4654    3.5599 C.3       1 <0>         0.0652
     20 N1          1.7373  -13.3557    2.5446 N.3       1 <0>        -0.5382
     21 C16         0.2727  -13.2443    2.5193 C.3       1 <0>         0.0359
     22 C17        -0.2768  -14.0453    1.3341 C.3       1 <0>         0.1152
     23 N2          0.2411  -15.4194    1.4186 N.am      1 <0>        -0.6178
     24 C18         1.6903  -15.6079    1.5841 C.3       1 <0>         0.1094
     25 C19         2.1623  -14.7453    2.7594 C.3       1 <0>         0.0403
     26 C20        -0.5903  -16.4776    1.3459 C.2       1 <0>         0.5129
     27 O3         -1.7828  -16.3037    1.2090 O.2       1 <0>        -0.5462
     28 C21        -0.0383  -17.8771    1.4347 C.3       1 <0>        -0.1767
     29 H1          1.0039    1.9031    0.0027 H         1 <0>         0.0541
     30 H2         -0.5459    1.8868   -0.8726 H         1 <0>         0.0545
     31 H3         -0.5289    1.8773    0.9072 H         1 <0>         0.0541
     32 H4         -1.0205   -0.3814    0.0098 H         1 <0>         0.0614
     33 H5          0.5123   -0.3556   -0.8948 H         1 <0>         0.0614
     34 H6          1.7647   -0.1336    1.2338 H         1 <0>         0.0642
     35 H7          0.2319   -0.1594    2.1383 H         1 <0>         0.0642
     36 H8         -0.2598   -2.4180    1.2409 H         1 <0>         0.0663
     37 H9          1.2730   -2.3923    0.3363 H         1 <0>         0.0663
     38 H10         2.5254   -2.1703    2.4649 H         1 <0>         0.0771
     39 H11         0.9926   -2.1961    3.3695 H         1 <0>         0.0770
     40 H12         0.5010   -4.4547    2.4720 H         1 <0>         0.0701
     41 H13         2.0337   -4.4289    1.5675 H         1 <0>         0.0702
     42 H14         1.2700   -6.3271    1.9509 H         1 <0>         0.1500
     43 H15         1.4568   -8.7502    2.1991 H         1 <0>         0.1509
     44 H16         0.9868  -10.8338    3.0981 H         1 <0>         0.1000
     45 H17         2.5234  -10.8076    2.2001 H         1 <0>         0.1108
     46 H18         3.3891  -12.6407    3.6279 H         1 <0>         0.0859
     47 H19         1.8525  -12.6669    4.5260 H         1 <0>         0.0443
     48 H20        -0.1383  -13.6405    3.4479 H         1 <0>         0.0408
     49 H21        -0.0106  -12.1971    2.4132 H         1 <0>         0.0900
     50 H22        -1.3658  -14.0612    1.3763 H         1 <0>         0.0959
     51 H23         0.0496  -13.5878    0.4002 H         1 <0>         0.0761
     52 H24         1.9018  -16.6568    1.7915 H         1 <0>         0.0940
     53 H25         2.2058  -15.3006    0.6741 H         1 <0>         0.0802
     54 H26         3.2494  -14.7868    2.8274 H         1 <0>         0.0918
     55 H27         1.7250  -15.1206    3.6846 H         1 <0>         0.0417
     56 H28        -0.0196  -18.1948    2.4772 H         1 <0>         0.0941
     57 H29        -0.6702  -18.5541    0.8598 H         1 <0>         0.0946
     58 H30         0.9742  -17.8945    1.0313 H         1 <0>         0.0832
@<TRIPOS>BOND
     1    1    2 1
     2    1   29 1
     3    1   30 1
     4    1   31 1
     5    2    3 1
     6    2   32 1
     7    2   33 1
     8    3    4 1
     9    3   34 1
    10    3   35 1
    11    4    5 1
    12    4   36 1
    13    4   37 1
    14    5    6 1
    15    5   38 1
    16    5   39 1
    17    6    7 1
    18    6   40 1
    19    6   41 1
    20    7    8 1
    21    8   13 ar
    22    8    9 ar
    23    9   10 ar
    24    9   42 1
    25   10   11 ar
    26   10   43 1
    27   11   12 ar
    28   11   16 1
    29   12   13 ar
    30   12   15 1
    31   13   14 1
    32   16   17 2
    33   16   18 1
    34   18   19 1
    35   18   44 1
    36   18   45 1
    37   19   20 1
    38   19   46 1
    39   19   47 1
    40   20   25 1
    41   20   21 1
    42   21   22 1
    43   21   48 1
    44   21   49 1
    45   22   23 1
    46   22   50 1
    47   22   51 1
    48   23   24 1
    49   23   26 am
    50   24   25 1
    51   24   52 1
    52   24   53 1
    53   25   54 1
    54   25   55 1
    55   26   27 2
    56   26   28 1
    57   28   56 1
    58   28   57 1
    59   28   58 1
@<TRIPOS>MOLECULE
CHEMBL562247__1
   59    60     0     0     0
SMALL
USER_CHARGES

@<TRIPOS>ATOM
      1 C1          0.0735    1.5808    1.0866 C.3       1 <0>        -0.1561
      2 C2          0.1105    0.0535    1.0043 C.3       1 <0>        -0.1250
      3 C3          0.6138   -0.5168    2.3318 C.3       1 <0>        -0.1212
      4 C4          0.6508   -2.0441    2.2495 C.3       1 <0>        -0.1160
      5 C5          1.1541   -2.6144    3.5771 C.3       1 <0>        -0.1220
      6 C6          1.1911   -4.1417    3.4947 C.3       1 <0>         0.0531
      7 O1          1.6612   -4.6743    4.7346 O.3       1 <0>        -0.2878
      8 C7          1.7542   -6.0247    4.8292 C.ar      1 <0>         0.2036
      9 C8          1.4041   -6.8210    3.7439 C.ar      1 <0>        -0.2107
     10 C9          1.4944   -8.1809    3.8297 C.ar      1 <0>        -0.0153
     11 C10         1.9416   -8.7807    5.0139 C.ar      1 <0>        -0.2131
     12 C11         2.2955   -7.9799    6.1087 C.ar      1 <0>         0.0619
     13 C12         2.2048   -6.6071    6.0091 C.ar      1 <0>        -0.0908
     14 Cl1         2.6466   -5.6074    7.3579 Cl        1 <0>        -0.0129
     15 Cl2         2.8505   -8.7124    7.5815 Cl        1 <0>         0.0050
     16 C13         2.0390  -10.2421    5.1082 C.2       1 <0>         0.4073
     17 O2          2.4266  -10.7591    6.1349 O.2       1 <0>        -0.4222
     18 C14         1.6574  -11.1003    3.9297 C.3       1 <0>        -0.1970
     19 C15         1.8496  -12.5750    4.2893 C.3       1 <0>        -0.0009
     20 N1          1.4777  -13.4116    3.1405 N.4       1 <0>        -0.3840
     21 C16         0.0443  -13.2521    2.8648 C.3       1 <0>        -0.0272
     22 C17        -0.3214  -14.0337    1.5987 C.3       1 <0>         0.0880
     23 N2          0.1123  -15.4289    1.7703 N.am      1 <0>        -0.6383
     24 C18         1.4953  -15.6762    2.2066 C.3       1 <0>         0.0813
     25 C19         1.7752  -14.8171    3.4441 C.3       1 <0>        -0.0211
     26 C20        -0.7335  -16.4515    1.5349 C.2       1 <0>         0.5226
     27 O3         -1.8981  -16.2288    1.2802 O.2       1 <0>        -0.5140
     28 C21        -0.2320  -17.8716    1.5883 C.3       1 <0>        -0.1812
     29 H1          1.0762    1.9583    1.2874 H         1 <0>         0.0548
     30 H2         -0.2851    1.9871    0.1409 H         1 <0>         0.0557
     31 H3         -0.5970    1.8852    1.8903 H         1 <0>         0.0548
     32 H4         -0.8922   -0.3239    0.8035 H         1 <0>         0.0612
     33 H5          0.7810   -0.2509    0.2006 H         1 <0>         0.0611
     34 H6          1.6165   -0.1393    2.5326 H         1 <0>         0.0652
     35 H7         -0.0567   -0.2124    3.1355 H         1 <0>         0.0652
     36 H8         -0.3519   -2.4215    2.0487 H         1 <0>         0.0661
     37 H9          1.3213   -2.3485    1.4458 H         1 <0>         0.0661
     38 H10         2.1568   -2.2369    3.7778 H         1 <0>         0.0791
     39 H11         0.4836   -2.3100    4.3807 H         1 <0>         0.0791
     40 H12         0.1884   -4.5191    3.2940 H         1 <0>         0.0720
     41 H13         1.8616   -4.4461    2.6910 H         1 <0>         0.0720
     42 H14         1.0589   -6.3618    2.8294 H         1 <0>         0.1533
     43 H15         1.2205   -8.7944    2.9841 H         1 <0>         0.1458
     44 H16         0.6131  -10.9220    3.6734 H         1 <0>         0.1227
     45 H17         2.2888  -10.8488    3.0776 H         1 <0>         0.1249
     46 H18         2.8939  -12.7534    4.5457 H         1 <0>         0.1429
     47 H19         1.2182  -12.8265    5.1415 H         1 <0>         0.1396
     48 H20        -0.5325  -13.6342    3.7071 H         1 <0>         0.1363
     49 H21        -0.1824  -12.1961    2.7182 H         1 <0>         0.1438
     50 H22        -1.4004  -14.0016    1.4472 H         1 <0>         0.1364
     51 H23         0.1854  -13.5958    0.7387 H         1 <0>         0.0956
     52 H24         1.6174  -16.7300    2.4571 H         1 <0>         0.1376
     53 H25         2.1855  -15.4041    1.4081 H         1 <0>         0.0991
     54 H26         2.8241  -14.9142    3.7243 H         1 <0>         0.1477
     55 H27         1.1460  -15.1518    4.2688 H         1 <0>         0.1362
     56 H28         0.8486  -17.8702    1.7306 H         1 <0>         0.0824
     57 H29        -0.7072  -18.3937    2.4188 H         1 <0>         0.1057
     58 H30        -0.4748  -18.3780    0.6541 H         1 <0>         0.1079
     59 H31         2.0073  -13.1242    2.3312 H         1 <0>         0.4234
@<TRIPOS>BOND
     1    1    2 1
     2    1   29 1
     3    1   30 1
     4    1   31 1
     5    2    3 1
     6    2   32 1
     7    2   33 1
     8    3    4 1
     9    3   34 1
    10    3   35 1
    11    4    5 1
    12    4   36 1
    13    4   37 1
    14    5    6 1
    15    5   38 1
    16    5   39 1
    17    6    7 1
    18    6   40 1
    19    6   41 1
    20    7    8 1
    21    8   13 ar
    22    8    9 ar
    23    9   10 ar
    24    9   42 1
    25   10   11 ar
    26   10   43 1
    27   11   12 ar
    28   11   16 1
    29   12   13 ar
    30   12   15 1
    31   13   14 1
    32   16   17 2
    33   16   18 1
    34   18   19 1
    35   18   44 1
    36   18   45 1
    37   19   20 1
    38   19   46 1
    39   19   47 1
    40   20   25 1
    41   20   21 1
    42   20   59 1
    43   21   22 1
    44   21   48 1
    45   21   49 1
    46   22   23 1
    47   22   50 1
    48   22   51 1
    49   23   24 1
    50   23   26 am
    51   24   25 1
    52   24   52 1
    53   24   53 1
    54   25   54 1
    55   25   55 1
    56   26   27 2
    57   26   28 1
    58   28   56 1
    59   28   57 1
    60   28   58 1
@<TRIPOS>MOLECULE
CHEMBL124819
   48    51     0     0     0
SMALL
USER_CHARGES

@<TRIPOS>ATOM
      1 C1         -0.1197    1.4303    1.0097 C.ar      1 <0>        -0.1520
      2 C2          0.9853    2.2546    0.9343 C.ar      1 <0>        -0.1040
      3 C3          2.2514    1.7099    0.7843 C.ar      1 <0>         0.1305
      4 C4          2.4073    0.3193    0.7093 C.ar      1 <0>        -0.1185
      5 C5          1.2843   -0.5074    0.7864 C.ar      1 <0>        -0.0973
      6 C6          0.0277    0.0506    0.9360 C.ar      1 <0>         0.1119
      7 O1         -1.0664   -0.7531    1.0113 O.3       1 <0>        -0.2346
      8 C7         -2.2826   -0.1634    1.1582 C.ar      1 <0>         0.1052
      9 C8         -2.7813    0.0917    2.4287 C.ar      1 <0>        -0.0241
     10 C9         -4.0172    0.6908    2.5783 C.ar      1 <0>        -0.0797
     11 C10        -4.7608    1.0380    1.4577 C.ar      1 <0>         0.1875
     12 C11        -4.2616    0.7827    0.1869 C.ar      1 <0>        -0.0739
     13 C12        -3.0232    0.1887    0.0378 C.ar      1 <0>        -0.0219
     14 Cl1        -2.3962   -0.1240   -1.5505 Cl        1 <0>        -0.0147
     15 N1         -6.0137    1.6449    1.6091 N.am      1 <0>        -0.4043
     16 C13        -7.0663    1.1764    0.9153 C.2       1 <0>         0.6841
     17 O2         -6.9162    0.2313    0.1652 O.2       1 <0>        -0.5100
     18 N2         -8.2836    1.7376    1.0391 N.am      1 <0>        -0.6530
     19 H1         -9.0326    1.3875    0.5319 H         1 <0>         0.4403
     20 C14        -8.4626    2.7864    1.8686 C.2       1 <0>         0.5163
     21 O3         -9.5606    3.2986    1.9863 O.2       1 <0>        -0.4654
     22 C15        -7.3191    3.3011    2.6263 C.2       1 <0>         0.0701
     23 N3         -6.1554    2.7279    2.4849 N.2       1 <0>        -0.1687
     24 Cl2        -1.8522   -0.3428    3.8292 Cl        1 <0>        -0.0184
     25 C16         3.7511   -0.2684    0.5491 C.2       1 <0>         0.5673
     26 O4          4.4868    0.1282   -0.3340 O.2       1 <0>        -0.5084
     27 N4          4.1631   -1.2449    1.3817 N.am      1 <0>        -0.6120
     28 C17         5.5308   -1.7819    1.3013 C.3       1 <0>         0.0769
     29 C18         6.1412   -1.7627    2.7073 C.3       1 <0>         0.0478
     30 O5          5.2534   -2.4199    3.6149 O.3       1 <0>        -0.3769
     31 C19         3.9798   -1.7849    3.7509 C.3       1 <0>         0.0474
     32 C20         3.2605   -1.8013    2.4020 C.3       1 <0>         0.0613
     33 O6          3.3368    2.5214    0.7099 O.3       1 <0>        -0.4791
     34 H2         -1.1031    1.8598    1.1311 H         1 <0>         0.1340
     35 H3          0.8631    3.3261    0.9920 H         1 <0>         0.1444
     36 H4          1.3969   -1.5800    0.7289 H         1 <0>         0.1461
     37 H5         -4.4052    0.8889    3.5665 H         1 <0>         0.1598
     38 H6         -4.8396    1.0525   -0.6846 H         1 <0>         0.1576
     39 H7         -7.4388    4.1397    3.2962 H         1 <0>         0.2342
     40 H8          5.5019   -2.8055    0.9276 H         1 <0>         0.0803
     41 H9          6.1294   -1.1633    0.6327 H         1 <0>         0.1041
     42 H10         7.0995   -2.2819    2.6953 H         1 <0>         0.1103
     43 H11         6.2893   -0.7308    3.0258 H         1 <0>         0.0570
     44 H12         3.3832   -2.3200    4.4896 H         1 <0>         0.1094
     45 H13         4.1200   -0.7531    4.0732 H         1 <0>         0.0560
     46 H14         2.3564   -1.1955    2.4620 H         1 <0>         0.1027
     47 H15         2.9991   -2.8268    2.1410 H         1 <0>         0.0837
     48 H16         3.7394    2.7194    1.5665 H         1 <0>         0.3908
@<TRIPOS>BOND
     1    1    6 ar
     2    1    2 ar
     3    1   34 1
     4    2    3 ar
     5    2   35 1
     6    3    4 ar
     7    3   33 1
     8    4    5 ar
     9    4   25 1
    10    5    6 ar
    11    5   36 1
    12    6    7 1
    13    7    8 1
    14    8   13 ar
    15    8    9 ar
    16    9   10 ar
    17    9   24 1
    18   10   11 ar
    19   10   37 1
    20   11   12 ar
    21   11   15 1
    22   12   13 ar
    23   12   38 1
    24   13   14 1
    25   15   23 1
    26   15   16 am
    27   16   17 2
    28   16   18 am
    29   18   19 1
    30   18   20 am
    31   20   21 2
    32   20   22 1
    33   22   23 2
    34   22   39 1
    35   25   26 2
    36   25   27 am
    37   27   32 1
    38   27   28 1
    39   28   29 1
    40   28   40 1
    41   28   41 1
    42   29   30 1
    43   29   42 1
    44   29   43 1
    45   30   31 1
    46   31   32 1
    47   31   44 1
    48   31   45 1
    49   32   46 1
    50   32   47 1
    51   33   48 1
@<TRIPOS>MOLECULE
CHEMBL124819__1
   47    50     0     0     0
SMALL
USER_CHARGES

@<TRIPOS>ATOM
      1 C1         -0.1142    1.4352    0.9953 C.ar      1 <0>        -0.1500
      2 C2          0.9947    2.2553    0.9321 C.ar      1 <0>        -0.1034
      3 C3          2.2598    1.7061    0.7909 C.ar      1 <0>         0.1228
      4 C4          2.4109    0.3152    0.7125 C.ar      1 <0>        -0.1222
      5 C5          1.2840   -0.5074    0.7772 C.ar      1 <0>        -0.1032
      6 C6          0.0284    0.0551    0.9181 C.ar      1 <0>         0.1194
      7 O1         -1.0695   -0.7444    0.9813 O.3       1 <0>        -0.2328
      8 C7         -2.2844   -0.1505    1.1199 C.ar      1 <0>         0.0800
      9 C8         -2.7930    0.1023    2.3871 C.ar      1 <0>        -0.0212
     10 C9         -4.0275    0.7058    2.5284 C.ar      1 <0>        -0.0916
     11 C10        -4.7603    1.0598    1.4025 C.ar      1 <0>         0.2025
     12 C11        -4.2513    0.8068    0.1349 C.ar      1 <0>        -0.0727
     13 C12        -3.0142    0.2084   -0.0057 C.ar      1 <0>        -0.0192
     14 Cl1        -2.3749   -0.1014   -1.5897 Cl        1 <0>        -0.0308
     15 N1         -6.0114    1.6709    1.5453 N.am      1 <0>        -0.3716
     16 C13        -7.0578    1.2016    0.8422 C.2       1 <0>         0.6174
     17 O2         -6.9061    0.2522    0.0912 O.2       1 <0>        -0.5684
     18 N2         -8.2623    1.7677    0.9610 N.2       1 <0>        -0.6227
     19 C14        -8.4131    2.7986    1.7812 C.2       1 <0>         0.4330
     20 O3         -9.6182    3.3939    1.9250 O.3       1 <0>        -0.6436
     21 C15        -7.2910    3.2624    2.5021 C.2       1 <0>         0.0094
     22 N3         -6.1381    2.6667    2.3502 N.2       1 <0>        -0.2234
     23 Cl2        -1.8774   -0.3407    3.7940 Cl        1 <0>        -0.0366
     24 C16         3.7537   -0.2774    0.5617 C.2       1 <0>         0.5704
     25 O4          4.4974    0.1173   -0.3155 O.2       1 <0>        -0.5122
     26 N4          4.1559   -1.2562    1.3963 N.am      1 <0>        -0.6129
     27 C17         5.5222   -1.7980    1.3257 C.3       1 <0>         0.0774
     28 C18         6.1221   -1.7823    2.7363 C.3       1 <0>         0.0482
     29 O5          5.2251   -2.4373    3.6365 O.3       1 <0>        -0.3783
     30 C19         3.9528   -1.7978    3.7635 C.3       1 <0>         0.0476
     31 C20         3.2436   -1.8104    2.4093 C.3       1 <0>         0.0610
     32 O6          3.3491    2.5135    0.7284 O.3       1 <0>        -0.4804
     33 H1         -1.0969    1.8682    1.1098 H         1 <0>         0.1374
     34 H2          0.8762    3.3271    0.9923 H         1 <0>         0.1429
     35 H3          1.3929   -1.5802    0.7171 H         1 <0>         0.1438
     36 H4         -4.4231    0.9021    3.5139 H         1 <0>         0.1551
     37 H5         -4.8209    1.0816   -0.7406 H         1 <0>         0.1574
     38 H6         -7.3859    4.1003    3.1768 H         1 <0>         0.1840
     39 H7          5.4925   -2.8211    0.9508 H         1 <0>         0.0787
     40 H8          6.1280   -1.1808    0.6623 H         1 <0>         0.1029
     41 H9          7.0786   -2.3049    2.7310 H         1 <0>         0.1082
     42 H10         6.2714   -0.7513    3.0570 H         1 <0>         0.0563
     43 H11         3.3487   -2.3315    4.4972 H         1 <0>         0.1097
     44 H12         4.0942   -0.7669    4.0880 H         1 <0>         0.0562
     45 H13         2.3412   -1.2014    2.4630 H         1 <0>         0.1055
     46 H14         2.9806   -2.8347    2.1453 H         1 <0>         0.0832
     47 H15         3.7452    2.7070    1.5891 H         1 <0>         0.3872
@<TRIPOS>BOND
     1    1    6 ar
     2    1    2 ar
     3    1   33 1
     4    2    3 ar
     5    2   34 1
     6    3    4 ar
     7    3   32 1
     8    4    5 ar
     9    4   24 1
    10    5    6 ar
    11    5   35 1
    12    6    7 1
    13    7    8 1
    14    8   13 ar
    15    8    9 ar
    16    9   10 ar
    17    9   23 1
    18   10   11 ar
    19   10   36 1
    20   11   12 ar
    21   11   15 1
    22   12   13 ar
    23   12   37 1
    24   13   14 1
    25   15   22 1
    26   15   16 am
    27   16   17 2
    28   16   18 1
    29   18   19 2
    30   19   20 1
    31   19   21 1
    32   21   22 2
    33   21   38 1
    34   24   25 2
    35   24   26 am
    36   26   31 1
    37   26   27 1
    38   27   28 1
    39   27   39 1
    40   27   40 1
    41   28   29 1
    42   28   41 1
    43   28   42 1
    44   29   30 1
    45   30   31 1
    46   30   43 1
    47   30   44 1
    48   31   45 1
    49   31   46 1
    50   32   47 1
@<TRIPOS>MOLECULE
CHEMBL203777
   39    41     0     0     0
SMALL
USER_CHARGES

@<TRIPOS>ATOM
      1 C1         -0.0187    1.5258    0.0104 C.3       1 <0>        -0.1429
      2 C2          0.0021   -0.0041    0.0020 C.3       1 <0>        -0.0541
      3 C3          0.7421   -0.5109    1.2415 C.3       1 <0>        -0.1452
      4 C4         -1.4117   -0.5257    0.0127 C.ar      1 <0>        -0.0653
      5 C5         -2.2586   -0.2044    1.0558 C.ar      1 <0>        -0.1277
      6 C6         -3.5600   -0.6842    1.0654 C.ar      1 <0>         0.1288
      7 C7         -4.0111   -1.4867    0.0273 C.ar      1 <0>        -0.1760
      8 C8         -3.1643   -1.8077   -1.0153 C.ar      1 <0>        -0.1005
      9 C9         -1.8643   -1.3235   -1.0275 C.ar      1 <0>         0.0659
     10 O1         -1.0322   -1.6354   -2.0567 O.3       1 <0>        -0.4942
     11 O2         -4.3934   -0.3684    2.0921 O.3       1 <0>        -0.2358
     12 C10        -5.6609   -0.8608    2.0602 C.ar      1 <0>         0.0584
     13 C11        -6.6735   -0.1305    1.4382 C.ar      1 <0>        -0.0325
     14 C12        -7.9625   -0.6140    1.3966 C.ar      1 <0>        -0.0940
     15 C13        -8.2653   -1.8420    1.9779 C.ar      1 <0>         0.1014
     16 C14        -7.2469   -2.5847    2.6073 C.ar      1 <0>        -0.0859
     17 C15        -5.9371   -2.0822    2.6381 C.ar      1 <0>         0.0163
     18 Cl1        -4.6721   -2.9904    3.4053 Cl        1 <0>        -0.0425
     19 C16        -7.8413   -3.7697    3.0990 C.2       1 <0>        -0.1711
     20 C17        -9.1636   -3.7360    2.7757 C.2       1 <0>         0.0691
     21 N1         -9.4315   -2.5637    2.0916 N.pl3     1 <0>        -0.5530
     22 H1        -10.2982   -2.2948    1.7490 H         1 <0>         0.4267
     23 C18       -10.1450   -4.7741    3.1005 C.2       1 <0>         0.5408
     24 O3        -11.3134   -4.6403    2.7595 O.co2     1 <0>        -0.6798
     25 O4         -9.7969   -5.7756    3.7129 O.co2     1 <0>        -0.6572
     26 Cl2        -6.3058    1.4020    0.7103 Cl        1 <0>        -0.0504
     27 H2          1.0039    1.9031    0.0027 H         1 <0>         0.0573
     28 H3         -0.5459    1.8868   -0.8726 H         1 <0>         0.0561
     29 H4         -0.5289    1.8773    0.9072 H         1 <0>         0.0577
     30 H5          0.5123   -0.3556   -0.8948 H         1 <0>         0.0857
     31 H6          0.2319   -0.1594    2.1383 H         1 <0>         0.0587
     32 H7          0.7568   -1.6008    1.2356 H         1 <0>         0.0548
     33 H8          1.7647   -0.1336    1.2338 H         1 <0>         0.0577
     34 H9         -1.9072    0.4200    1.8639 H         1 <0>         0.1340
     35 H10        -5.0243   -1.8606    0.0348 H         1 <0>         0.1303
     36 H11        -3.5153   -2.4327   -1.8232 H         1 <0>         0.1302
     37 H12        -0.5229   -2.4458   -1.9190 H         1 <0>         0.3827
     38 H13        -8.7388   -0.0398    0.9130 H         1 <0>         0.1412
     39 H14        -7.3368   -4.5602    3.6347 H         1 <0>         0.1545
@<TRIPOS>BOND
     1    1    2 1
     2    1   27 1
     3    1   28 1
     4    1   29 1
     5    2    3 1
     6    2    4 1
     7    2   30 1
     8    3   31 1
     9    3   32 1
    10    3   33 1
    11    4    9 ar
    12    4    5 ar
    13    5    6 ar
    14    5   34 1
    15    6    7 ar
    16    6   11 1
    17    7    8 ar
    18    7   35 1
    19    8    9 ar
    20    8   36 1
    21    9   10 1
    22   10   37 1
    23   11   12 1
    24   12   17 ar
    25   12   13 ar
    26   13   14 ar
    27   13   26 1
    28   14   15 ar
    29   14   38 1
    30   15   21 1
    31   15   16 ar
    32   16   17 ar
    33   16   19 1
    34   17   18 1
    35   19   20 2
    36   19   39 1
    37   20   21 1
    38   20   23 1
    39   21   22 1
    40   23   24 2
    41   23   25 1
@<TRIPOS>MOLECULE
CHEMBL125242
   50    53     0     0     0
SMALL
USER_CHARGES

@<TRIPOS>ATOM
      1 C1         -0.3815    0.9551    0.4973 C.ar      1 <0>        -0.1516
      2 C2          0.7135    1.6589    0.9575 C.ar      1 <0>        -0.1067
      3 C3          1.9579    1.0503    1.0162 C.ar      1 <0>         0.1334
      4 C4          2.1019   -0.2822    0.6071 C.ar      1 <0>        -0.1199
      5 C5          0.9891   -0.9870    0.1429 C.ar      1 <0>        -0.0934
      6 C6         -0.2459   -0.3664    0.0901 C.ar      1 <0>         0.1092
      7 O1         -1.3301   -1.0513   -0.3616 O.3       1 <0>        -0.2352
      8 C7         -2.5249   -0.4036   -0.3971 C.ar      1 <0>         0.1069
      9 C8         -3.3659   -0.4374    0.7072 C.ar      1 <0>        -0.0253
     10 C9         -4.5801    0.2206    0.6714 C.ar      1 <0>        -0.0790
     11 C10        -4.9595    0.9162   -0.4695 C.ar      1 <0>         0.1865
     12 C11        -4.1180    0.9498   -1.5741 C.ar      1 <0>        -0.0735
     13 C12        -2.9014    0.2963   -1.5356 C.ar      1 <0>        -0.0219
     14 Cl1        -1.8465    0.3442   -2.9135 Cl        1 <0>        -0.0167
     15 N1         -6.1904    1.5830   -0.5062 N.am      1 <0>        -0.4045
     16 C13        -7.0147    1.3974   -1.5526 C.2       1 <0>         0.6842
     17 O2         -6.6802    0.6526   -2.4536 O.2       1 <0>        -0.5103
     18 N2         -8.2048    2.0234   -1.6172 N.am      1 <0>        -0.6531
     19 H1         -8.7879    1.8786   -2.3787 H         1 <0>         0.4402
     20 C14        -8.5870    2.8518   -0.6234 C.2       1 <0>         0.5164
     21 O3         -9.6620    3.4207   -0.6746 O.2       1 <0>        -0.4657
     22 C15        -7.6926    3.0578    0.5185 C.2       1 <0>         0.0695
     23 N3         -6.5493    2.4296    0.5494 N.2       1 <0>        -0.1683
     24 Cl2        -2.8918   -1.3072    2.1328 Cl        1 <0>        -0.0165
     25 C16         3.4226   -0.9372    0.6659 C.2       1 <0>         0.5730
     26 O4          4.1035   -0.8437    1.6690 O.2       1 <0>        -0.5276
     27 N4          3.8745   -1.6391   -0.3922 N.am      1 <0>        -0.6047
     28 C17         3.1263   -1.6520   -1.6566 C.3       1 <0>         0.0992
     29 C18         4.0689   -1.2389   -2.7914 C.3       1 <0>        -0.1363
     30 C19         5.3014   -2.1460   -2.7811 C.3       1 <0>        -0.1212
     31 C20         6.0446   -1.9846   -1.4531 C.3       1 <0>        -0.1358
     32 C21         5.1276   -2.4012   -0.3050 C.3       1 <0>         0.1109
     33 O5          3.0337    1.7434    1.4684 O.3       1 <0>        -0.4870
     34 H2         -1.3493    1.4328    0.4579 H         1 <0>         0.1330
     35 H3          0.6006    2.6859    1.2720 H         1 <0>         0.1435
     36 H4          1.0927   -2.0141   -0.1744 H         1 <0>         0.1452
     37 H5         -5.2343    0.1940    1.5302 H         1 <0>         0.1594
     38 H6         -4.4128    1.4906   -2.4612 H         1 <0>         0.1570
     39 H7         -7.9776    3.7164    1.3256 H         1 <0>         0.2341
     40 H8          2.7450   -2.6555   -1.8454 H         1 <0>         0.0735
     41 H9          2.2959   -0.9485   -1.5970 H         1 <0>         0.0905
     42 H10         3.5531   -1.3368   -3.7466 H         1 <0>         0.0775
     43 H11         4.3780   -0.2034   -2.6488 H         1 <0>         0.0681
     44 H12         4.9896   -3.1837   -2.8990 H         1 <0>         0.0657
     45 H13         5.9623   -1.8700   -3.6029 H         1 <0>         0.0673
     46 H14         6.9350   -2.6133   -1.4557 H         1 <0>         0.0776
     47 H15         6.3351   -0.9421   -1.3231 H         1 <0>         0.0676
     48 H16         5.6172   -2.1919    0.6461 H         1 <0>         0.0945
     49 H17         4.9131   -3.4672   -0.3811 H         1 <0>         0.0702
     50 H18         3.1741    1.6733    2.4226 H         1 <0>         0.4002
@<TRIPOS>BOND
     1    1    6 ar
     2    1    2 ar
     3    1   34 1
     4    2    3 ar
     5    2   35 1
     6    3    4 ar
     7    3   33 1
     8    4    5 ar
     9    4   25 1
    10    5    6 ar
    11    5   36 1
    12    6    7 1
    13    7    8 1
    14    8   13 ar
    15    8    9 ar
    16    9   10 ar
    17    9   24 1
    18   10   11 ar
    19   10   37 1
    20   11   12 ar
    21   11   15 1
    22   12   13 ar
    23   12   38 1
    24   13   14 1
    25   15   23 1
    26   15   16 am
    27   16   17 2
    28   16   18 am
    29   18   19 1
    30   18   20 am
    31   20   21 2
    32   20   22 1
    33   22   23 2
    34   22   39 1
    35   25   26 2
    36   25   27 am
    37   27   32 1
    38   27   28 1
    39   28   29 1
    40   28   40 1
    41   28   41 1
    42   29   30 1
    43   29   42 1
    44   29   43 1
    45   30   31 1
    46   30   44 1
    47   30   45 1
    48   31   32 1
    49   31   46 1
    50   31   47 1
    51   32   48 1
    52   32   49 1
    53   33   50 1
@<TRIPOS>MOLECULE
CHEMBL125242__1
   49    52     0     0     0
SMALL
USER_CHARGES

@<TRIPOS>ATOM
      1 C1         -0.4081    0.8829    0.4665 C.ar      1 <0>        -0.1495
      2 C2          0.6907    1.5823    0.9244 C.ar      1 <0>        -0.1061
      3 C3          1.9333    0.9697    0.9777 C.ar      1 <0>         0.1258
      4 C4          2.0718   -0.3624    0.5655 C.ar      1 <0>        -0.1237
      5 C5          0.9552   -1.0628    0.1036 C.ar      1 <0>        -0.0991
      6 C6         -0.2780   -0.4382    0.0561 C.ar      1 <0>         0.1165
      7 O1         -1.3658   -1.1188   -0.3933 O.3       1 <0>        -0.2335
      8 C7         -2.5586   -0.4673   -0.4235 C.ar      1 <0>         0.0816
      9 C8         -3.3960   -0.5008    0.6837 C.ar      1 <0>        -0.0223
     10 C9         -4.6081    0.1611    0.6533 C.ar      1 <0>        -0.0910
     11 C10        -4.9893    0.8603   -0.4851 C.ar      1 <0>         0.2019
     12 C11        -4.1512    0.8935   -1.5925 C.ar      1 <0>        -0.0727
     13 C12        -2.9367    0.2361   -1.5595 C.ar      1 <0>        -0.0190
     14 Cl1        -1.8863    0.2835   -2.9407 Cl        1 <0>        -0.0327
     15 N1         -6.2175    1.5306   -0.5163 N.am      1 <0>        -0.3718
     16 C13        -7.0429    1.3450   -1.5622 C.2       1 <0>         0.6176
     17 O2         -6.7138    0.5972   -2.4682 O.2       1 <0>        -0.5689
     18 N2         -8.2208    1.9734   -1.6154 N.2       1 <0>        -0.6231
     19 C14        -8.5661    2.7830   -0.6236 C.2       1 <0>         0.4332
     20 O3         -9.7508    3.4336   -0.6462 O.3       1 <0>        -0.6440
     21 C15        -7.6729    2.9520    0.4569 C.2       1 <0>         0.0086
     22 N3         -6.5363    2.3077    0.4584 N.2       1 <0>        -0.2229
     23 Cl2        -2.9199   -1.3750    2.1059 Cl        1 <0>        -0.0345
     24 C16         3.3906   -1.0217    0.6186 C.2       1 <0>         0.5762
     25 O4          4.0746   -0.9333    1.6199 O.2       1 <0>        -0.5315
     26 N4          3.8372   -1.7219   -0.4429 N.am      1 <0>        -0.6057
     27 C17         3.0857   -1.7283   -1.7054 C.3       1 <0>         0.0986
     28 C18         4.0266   -1.3149   -2.8414 C.3       1 <0>        -0.1364
     29 C19         5.2561   -2.2262   -2.8372 C.3       1 <0>        -0.1205
     30 C20         6.0034   -2.0714   -1.5107 C.3       1 <0>        -0.1351
     31 C21         5.0880   -2.4885   -0.3615 C.3       1 <0>         0.1114
     32 O5          3.0129    1.6585    1.4276 O.3       1 <0>        -0.4884
     33 H1         -1.3745    1.3637    0.4313 H         1 <0>         0.1364
     34 H2          0.5821    2.6090    1.2413 H         1 <0>         0.1419
     35 H3          1.0545   -2.0896   -0.2161 H         1 <0>         0.1430
     36 H4         -5.2596    0.1348    1.5143 H         1 <0>         0.1547
     37 H5         -4.4474    1.4367   -2.4778 H         1 <0>         0.1567
     38 H6         -7.9292    3.6055    1.2778 H         1 <0>         0.1839
     39 H7          2.7004   -2.7299   -1.8962 H         1 <0>         0.0731
     40 H8          2.2578   -1.0222   -1.6414 H         1 <0>         0.0933
     41 H9          3.5079   -1.4081   -3.7955 H         1 <0>         0.0778
     42 H10         4.3396   -0.2809   -2.6965 H         1 <0>         0.0679
     43 H11         4.9404   -3.2625   -2.9574 H         1 <0>         0.0652
     44 H12         5.9156   -1.9500   -3.6599 H         1 <0>         0.0659
     45 H13         6.8916   -2.7031   -1.5177 H         1 <0>         0.0756
     46 H14         6.2978   -1.0303   -1.3783 H         1 <0>         0.0671
     47 H15         5.5808   -2.2838    0.5890 H         1 <0>         0.0933
     48 H16         4.8697   -3.5535   -0.4403 H         1 <0>         0.0687
     49 H17         3.1562    1.5860    2.3812 H         1 <0>         0.3967
@<TRIPOS>BOND
     1    1    6 ar
     2    1    2 ar
     3    1   33 1
     4    2    3 ar
     5    2   34 1
     6    3    4 ar
     7    3   32 1
     8    4    5 ar
     9    4   24 1
    10    5    6 ar
    11    5   35 1
    12    6    7 1
    13    7    8 1
    14    8   13 ar
    15    8    9 ar
    16    9   10 ar
    17    9   23 1
    18   10   11 ar
    19   10   36 1
    20   11   12 ar
    21   11   15 1
    22   12   13 ar
    23   12   37 1
    24   13   14 1
    25   15   22 1
    26   15   16 am
    27   16   17 2
    28   16   18 1
    29   18   19 2
    30   19   20 1
    31   19   21 1
    32   21   22 2
    33   21   38 1
    34   24   25 2
    35   24   26 am
    36   26   31 1
    37   26   27 1
    38   27   28 1
    39   27   39 1
    40   27   40 1
    41   28   29 1
    42   28   41 1
    43   28   42 1
    44   29   30 1
    45   29   43 1
    46   29   44 1
    47   30   31 1
    48   30   45 1
    49   30   46 1
    50   31   47 1
    51   31   48 1
    52   32   49 1
@<TRIPOS>MOLECULE
CHEMBL297540
   46    48     0     0     0
SMALL
USER_CHARGES

@<TRIPOS>ATOM
      1 C1         -0.4052    1.4771    0.0172 C.3       1 <0>        -0.1103
      2 C2         -0.1889   -0.0143    0.0041 C.ar      1 <0>        -0.0604
      3 C3         -0.1802   -0.6997   -1.1940 C.ar      1 <0>        -0.1255
      4 C4          0.0192   -2.0747   -1.2059 C.ar      1 <0>         0.1815
      5 C5          0.2096   -2.7587   -0.0114 C.ar      1 <0>        -0.1552
      6 C6          0.2005   -2.0717    1.1858 C.ar      1 <0>        -0.0625
      7 C7          0.0070   -0.6974    1.1963 C.ar      1 <0>         0.0350
      8 O1          0.0037   -0.0209    2.3752 O.3       1 <0>        -0.2443
      9 C8         -1.1819    0.1242    3.0245 C.ar      1 <0>         0.1236
     10 C9         -2.3399   -0.4166    2.4820 C.ar      1 <0>        -0.1679
     11 C10        -3.5480   -0.2733    3.1367 C.ar      1 <0>        -0.1036
     12 C11        -3.6103    0.4121    4.3392 C.ar      1 <0>         0.0895
     13 C12        -2.4478    0.9587    4.8901 C.ar      1 <0>        -0.0469
     14 C13        -1.2315    0.8063    4.2287 C.ar      1 <0>        -0.1182
     15 C14        -2.5083    1.6936    6.1770 C.ar      1 <0>        -0.0218
     16 C15        -2.2224    3.0570    6.2182 C.ar      1 <0>        -0.0910
     17 C16        -2.2801    3.7358    7.4183 C.ar      1 <0>        -0.1119
     18 C17        -2.6210    3.0659    8.5799 C.ar      1 <0>        -0.1079
     19 C18        -2.9058    1.7131    8.5462 C.ar      1 <0>        -0.1092
     20 C19        -2.8569    1.0241    7.3497 C.ar      1 <0>        -0.0233
     21 Cl1        -3.2217   -0.6726    7.3072 Cl        1 <0>        -0.0665
     22 O2         -4.7997    0.5531    4.9817 O.3       1 <0>        -0.4907
     23 C20         0.4070   -2.8133    2.4813 C.3       1 <0>        -0.1094
     24 N1          0.0278   -2.7697   -2.4187 N.am      1 <0>        -0.6653
     25 C21         0.5074   -2.1784   -3.5308 C.2       1 <0>         0.4523
     26 O3          1.0193   -1.0802   -3.4616 O.2       1 <0>        -0.5211
     27 C22         0.4089   -2.8755   -4.8501 C.2       1 <0>         0.4997
     28 O4          0.8432   -2.3401   -5.8571 O.co2     1 <0>        -0.6365
     29 O5         -0.1058   -3.9799   -4.9197 O.co2     1 <0>        -0.6650
     30 H1          0.5564    1.9843   -0.0615 H         1 <0>         0.0760
     31 H2         -1.0355    1.7602   -0.8257 H         1 <0>         0.0696
     32 H3         -0.8928    1.7653    0.9485 H         1 <0>         0.0645
     33 H4         -0.3286   -0.1673   -2.1219 H         1 <0>         0.1422
     34 H5          0.3643   -3.8275   -0.0197 H         1 <0>         0.1325
     35 H6         -2.2961   -0.9511    1.5445 H         1 <0>         0.1366
     36 H7         -4.4457   -0.6960    2.7102 H         1 <0>         0.1342
     37 H8         -0.3295    1.2228    4.6521 H         1 <0>         0.1366
     38 H9         -1.9558    3.5814    5.3125 H         1 <0>         0.1347
     39 H10        -2.0583    4.7922    7.4510 H         1 <0>         0.1317
     40 H11        -2.6644    3.6015    9.5167 H         1 <0>         0.1325
     41 H12        -3.1713    1.1953    9.4560 H         1 <0>         0.1348
     42 H13        -4.9971   -0.1596    5.6048 H         1 <0>         0.3799
     43 H14         1.4709   -2.8444    2.7166 H         1 <0>         0.0743
     44 H15        -0.1274   -2.3018    3.2819 H         1 <0>         0.0652
     45 H16         0.0269   -3.8301    2.3826 H         1 <0>         0.0684
     46 H17        -0.3115   -3.6775   -2.4600 H         1 <0>         0.4191
@<TRIPOS>BOND
     1    1    2 1
     2    1   30 1
     3    1   31 1
     4    1   32 1
     5    2    7 ar
     6    2    3 ar
     7    3    4 ar
     8    3   33 1
     9    4    5 ar
    10    4   24 1
    11    5    6 ar
    12    5   34 1
    13    6    7 ar
    14    6   23 1
    15    7    8 1
    16    8    9 1
    17    9   14 ar
    18    9   10 ar
    19   10   11 ar
    20   10   35 1
    21   11   12 ar
    22   11   36 1
    23   12   13 ar
    24   12   22 1
    25   13   14 ar
    26   13   15 1
    27   14   37 1
    28   15   20 ar
    29   15   16 ar
    30   16   17 ar
    31   16   38 1
    32   17   18 ar
    33   17   39 1
    34   18   19 ar
    35   18   40 1
    36   19   20 ar
    37   19   41 1
    38   20   21 1
    39   22   42 1
    40   23   43 1
    41   23   44 1
    42   23   45 1
    43   24   25 am
    44   24   46 1
    45   25   26 2
    46   25   27 1
    47   27   28 2
    48   27   29 1
@<TRIPOS>MOLECULE
CHEMBL44809
   52    54     0     0     0
SMALL
USER_CHARGES

@<TRIPOS>ATOM
      1 C1         -0.0252    1.4945    0.0247 C.3       1 <0>        -0.1199
      2 C2         -0.0081   -0.0124    0.0114 C.ar      1 <0>        -0.0067
      3 C3          0.0021   -0.6916   -1.1896 C.ar      1 <0>        -0.1748
      4 C4          0.0174   -2.0813   -1.2019 C.ar      1 <0>         0.2033
      5 C5          0.0228   -2.7870   -0.0046 C.ar      1 <0>        -0.1473
      6 C6          0.0126   -2.1080    1.1965 C.ar      1 <0>        -0.0067
      7 C7          0.0031   -0.7180    1.2090 C.ar      1 <0>        -0.1845
      8 S1         -0.0026    0.1493    2.7427 S.3       1 <0>        -0.0016
      9 C8         -1.7135    0.3398    3.1184 C.ar      1 <0>        -0.0994
     10 C9         -2.6758   -0.1679    2.2541 C.ar      1 <0>        -0.1088
     11 C10        -4.0160   -0.0181    2.5495 C.ar      1 <0>        -0.1227
     12 C11        -4.4022    0.6396    3.7085 C.ar      1 <0>         0.0952
     13 C12        -3.4425    1.1472    4.5717 C.ar      1 <0>        -0.0847
     14 C13        -2.1012    0.9926    4.2816 C.ar      1 <0>        -0.0841
     15 C14        -3.8636    1.8617    5.8299 C.3       1 <0>        -0.0435
     16 C15        -3.2985    1.1269    7.0471 C.3       1 <0>        -0.1116
     17 C16        -3.7259    1.8524    8.3246 C.3       1 <0>        -0.1190
     18 C17        -3.1911    3.2856    8.3005 C.3       1 <0>        -0.1208
     19 C18        -3.7562    4.0204    7.0833 C.3       1 <0>        -0.1190
     20 C19        -3.3287    3.2950    5.8058 C.3       1 <0>        -0.1093
     21 O1         -5.7228    0.7870    3.9982 O.3       1 <0>        -0.4954
     22 C20         0.0180   -2.8733    2.4947 C.3       1 <0>        -0.1198
     23 N1          0.0268   -2.7692   -2.4186 N.am      1 <0>        -0.6657
     24 C21         0.7110   -3.9246   -2.5342 C.2       1 <0>         0.4527
     25 O2          1.2493   -4.4111   -1.5612 O.2       1 <0>        -0.5200
     26 C22         0.8069   -4.6071   -3.8609 C.2       1 <0>         0.5001
     27 O3          1.4265   -5.6534   -3.9655 O.co2     1 <0>        -0.6357
     28 O4          0.2656   -4.1180   -4.8393 O.co2     1 <0>        -0.6643
     29 H1          0.9982    1.8695    0.0252 H         1 <0>         0.0771
     30 H2         -0.5456    1.8598   -0.8606 H         1 <0>         0.0671
     31 H3         -0.5407    1.8440    0.9192 H         1 <0>         0.0763
     32 H4         -0.0021   -0.1433   -2.1200 H         1 <0>         0.1310
     33 H5          0.0347   -3.8669   -0.0143 H         1 <0>         0.1452
     34 H6         -2.3754   -0.6793    1.3515 H         1 <0>         0.1288
     35 H7         -4.7642   -0.4126    1.8779 H         1 <0>         0.1285
     36 H8         -1.3540    1.3837    4.9562 H         1 <0>         0.1284
     37 H9         -4.9517    1.8810    5.8900 H         1 <0>         0.0849
     38 H10        -3.6795    0.1058    7.0643 H         1 <0>         0.0613
     39 H11        -2.2103    1.1077    6.9870 H         1 <0>         0.0648
     40 H12        -4.8141    1.8716    8.3847 H         1 <0>         0.0611
     41 H13        -3.3233    1.3289    9.1918 H         1 <0>         0.0616
     42 H14        -3.4956    3.8024    9.2106 H         1 <0>         0.0596
     43 H15        -2.1029    3.2664    8.2404 H         1 <0>         0.0617
     44 H16        -4.8444    4.0397    7.1434 H         1 <0>         0.0614
     45 H17        -3.3751    5.0415    7.0661 H         1 <0>         0.0616
     46 H18        -2.2405    3.2758    5.7457 H         1 <0>         0.0638
     47 H19        -3.7313    3.8185    4.9386 H         1 <0>         0.0631
     48 H20        -6.0941    0.0629    4.5206 H         1 <0>         0.3853
     49 H21         1.0469   -3.0464    2.8101 H         1 <0>         0.0785
     50 H22        -0.5039   -2.2967    3.2585 H         1 <0>         0.0749
     51 H23        -0.4850   -3.8300    2.3546 H         1 <0>         0.0678
     52 H24        -0.4591   -2.4151   -3.1798 H         1 <0>         0.4198
@<TRIPOS>BOND
     1    1    2 1
     2    1   29 1
     3    1   30 1
     4    1   31 1
     5    2    7 ar
     6    2    3 ar
     7    3    4 ar
     8    3   32 1
     9    4    5 ar
    10    4   23 1
    11    5    6 ar
    12    5   33 1
    13    6    7 ar
    14    6   22 1
    15    7    8 1
    16    8    9 1
    17    9   14 ar
    18    9   10 ar
    19   10   11 ar
    20   10   34 1
    21   11   12 ar
    22   11   35 1
    23   12   13 ar
    24   12   21 1
    25   13   14 ar
    26   13   15 1
    27   14   36 1
    28   15   20 1
    29   15   16 1
    30   15   37 1
    31   16   17 1
    32   16   38 1
    33   16   39 1
    34   17   18 1
    35   17   40 1
    36   17   41 1
    37   18   19 1
    38   18   42 1
    39   18   43 1
    40   19   20 1
    41   19   44 1
    42   19   45 1
    43   20   46 1
    44   20   47 1
    45   21   48 1
    46   22   49 1
    47   22   50 1
    48   22   51 1
    49   23   24 am
    50   23   52 1
    51   24   25 2
    52   24   26 1
    53   26   27 2
    54   26   28 1
@<TRIPOS>MOLECULE
CHEMBL45371
   49    51     0     0     0
SMALL
USER_CHARGES

@<TRIPOS>ATOM
      1 C1         -0.4052    1.4771    0.0172 C.3       1 <0>        -0.1108
      2 C2         -0.1889   -0.0143    0.0041 C.ar      1 <0>        -0.0597
      3 C3         -0.1802   -0.6997   -1.1940 C.ar      1 <0>        -0.1257
      4 C4          0.0192   -2.0747   -1.2059 C.ar      1 <0>         0.1825
      5 C5          0.2096   -2.7587   -0.0114 C.ar      1 <0>        -0.1555
      6 C6          0.2005   -2.0717    1.1858 C.ar      1 <0>        -0.0627
      7 C7          0.0070   -0.6974    1.1963 C.ar      1 <0>         0.0337
      8 O1          0.0037   -0.0209    2.3752 O.3       1 <0>        -0.2439
      9 C8         -1.1819    0.1242    3.0245 C.ar      1 <0>         0.1251
     10 C9         -2.3399   -0.4166    2.4820 C.ar      1 <0>        -0.1691
     11 C10        -3.5481   -0.2729    3.1364 C.ar      1 <0>        -0.1012
     12 C11        -3.6103    0.4122    4.3392 C.ar      1 <0>         0.0810
     13 C12        -2.4477    0.9583    4.8903 C.ar      1 <0>        -0.0454
     14 C13        -1.2315    0.8063    4.2286 C.ar      1 <0>        -0.1226
     15 C14        -2.5081    1.6928    6.1776 C.ar      1 <0>        -0.0417
     16 C15        -1.6156    1.3827    7.2024 C.ar      1 <0>        -0.0732
     17 C16        -1.6760    2.0696    8.3977 C.ar      1 <0>        -0.1213
     18 C17        -2.6204    3.0640    8.5801 C.ar      1 <0>        -0.0715
     19 C18        -3.5084    3.3759    7.5667 C.ar      1 <0>        -0.1853
     20 C19        -3.4534    2.6993    6.3648 C.ar      1 <0>        -0.0369
     21 C20        -4.5342    4.4604    7.7730 C.3       1 <0>         0.5090
     22 F1         -4.3915    4.9994    9.0560 F         1 <0>        -0.1784
     23 F2         -4.3460    5.4676    6.8204 F         1 <0>        -0.1758
     24 F3         -5.8175    3.9210    7.6339 F         1 <0>        -0.1748
     25 O2         -4.7996    0.5532    4.9817 O.3       1 <0>        -0.4905
     26 C21         0.4070   -2.8133    2.4813 C.3       1 <0>        -0.1089
     27 N1          0.0278   -2.7697   -2.4187 N.am      1 <0>        -0.6653
     28 C22         0.5074   -2.1784   -3.5308 C.2       1 <0>         0.4524
     29 O3          1.0193   -1.0802   -3.4616 O.2       1 <0>        -0.5208
     30 C23         0.4089   -2.8755   -4.8501 C.2       1 <0>         0.4996
     31 O4          0.8432   -2.3401   -5.8571 O.co2     1 <0>        -0.6361
     32 O5         -0.1058   -3.9799   -4.9197 O.co2     1 <0>        -0.6649
     33 H1          0.5564    1.9843   -0.0615 H         1 <0>         0.0764
     34 H2         -1.0355    1.7602   -0.8257 H         1 <0>         0.0699
     35 H3         -0.8928    1.7653    0.9485 H         1 <0>         0.0644
     36 H4         -0.3286   -0.1673   -2.1219 H         1 <0>         0.1425
     37 H5          0.3643   -3.8275   -0.0197 H         1 <0>         0.1328
     38 H6         -2.2961   -0.9514    1.5447 H         1 <0>         0.1370
     39 H7         -4.4459   -0.6950    2.7095 H         1 <0>         0.1349
     40 H8         -0.3295    1.2231    4.6519 H         1 <0>         0.1376
     41 H9         -0.8785    0.6061    7.0613 H         1 <0>         0.1355
     42 H10        -0.9850    1.8302    9.1924 H         1 <0>         0.1373
     43 H11        -2.6645    3.5986    9.5175 H         1 <0>         0.1382
     44 H12        -4.1446    2.9465    5.5726 H         1 <0>         0.1392
     45 H13        -4.9972   -0.1597    5.6045 H         1 <0>         0.3861
     46 H14         1.4709   -2.8444    2.7166 H         1 <0>         0.0744
     47 H15        -0.1274   -2.3018    3.2819 H         1 <0>         0.0645
     48 H16         0.0269   -3.8301    2.3826 H         1 <0>         0.0686
     49 H17        -0.3115   -3.6775   -2.4600 H         1 <0>         0.4192
@<TRIPOS>BOND
     1    1    2 1
     2    1   33 1
     3    1   34 1
     4    1   35 1
     5    2    7 ar
     6    2    3 ar
     7    3    4 ar
     8    3   36 1
     9    4    5 ar
    10    4   27 1
    11    5    6 ar
    12    5   37 1
    13    6    7 ar
    14    6   26 1
    15    7    8 1
    16    8    9 1
    17    9   14 ar
    18    9   10 ar
    19   10   11 ar
    20   10   38 1
    21   11   12 ar
    22   11   39 1
    23   12   13 ar
    24   12   25 1
    25   13   14 ar
    26   13   15 1
    27   14   40 1
    28   15   20 ar
    29   15   16 ar
    30   16   17 ar
    31   16   41 1
    32   17   18 ar
    33   17   42 1
    34   18   19 ar
    35   18   43 1
    36   19   20 ar
    37   19   21 1
    38   20   44 1
    39   21   22 1
    40   21   23 1
    41   21   24 1
    42   25   45 1
    43   26   46 1
    44   26   47 1
    45   26   48 1
    46   27   28 am
    47   27   49 1
    48   28   29 2
    49   28   30 1
    50   30   31 2
    51   30   32 1
@<TRIPOS>MOLECULE
CHEMBL163228
   46    48     0     0     0
SMALL
USER_CHARGES

@<TRIPOS>ATOM
      1 C1         -0.0167    1.3828    0.0096 C.ar      1 <0>        -0.1861
      2 C2          1.1701    2.0897    0.0021 C.ar      1 <0>        -0.1090
      3 C3          2.3804    1.4127   -0.0135 C.ar      1 <0>         0.0859
      4 C4          2.3993    0.0256   -0.0212 C.ar      1 <0>        -0.0395
      5 C5          1.2130   -0.6813   -0.0136 C.ar      1 <0>        -0.0999
      6 C6          0.0021   -0.0041    0.0020 C.ar      1 <0>         0.1149
      7 O1         -1.1660   -0.6999    0.0099 O.3       1 <0>        -0.2424
      8 C7         -2.3282    0.0045    0.0252 C.ar      1 <0>         0.1527
      9 C8         -2.9079    0.3634    1.2343 C.ar      1 <0>        -0.0959
     10 C9         -4.0901    1.0798    1.2467 C.ar      1 <0>        -0.0942
     11 C10        -4.6950    1.4389    0.0564 C.ar      1 <0>        -0.1016
     12 C11        -4.1201    1.0824   -1.1495 C.ar      1 <0>        -0.0538
     13 C12        -2.9348    0.3714   -1.1682 C.ar      1 <0>        -0.0957
     14 Br1        -2.1445   -0.1078   -2.8180 Br        1 <0>         0.0124
     15 C13        -5.9837    2.2199    0.0734 C.3       1 <0>        -0.0821
     16 C14        -5.6723    3.7178    0.0715 C.3       1 <0>        -0.0457
     17 H1         -5.0317    3.9547   -0.7781 H         1 <0>         0.1366
     18 C15        -6.9572    4.4979   -0.0354 C.2       1 <0>         0.4910
     19 O2         -7.5541    4.8308    0.9742 O.co2     1 <0>        -0.6670
     20 O3         -7.4000    4.7960   -1.1316 O.co2     1 <0>        -0.6326
     21 N1         -4.9840    4.0765    1.3187 N.4       1 <0>        -0.6167
     22 Br2        -2.0817   -0.1278    2.8628 Br        1 <0>        -0.0074
     23 C16         3.7145   -0.7099   -0.0382 C.3       1 <0>         0.0052
     24 C17         4.2595   -0.7323   -1.4430 C.ar      1 <0>        -0.0707
     25 C18         5.5347   -0.2508   -1.7003 C.ar      1 <0>        -0.0804
     26 C19         5.9948   -0.2910   -3.0080 C.ar      1 <0>        -0.2352
     27 C20         5.1472   -0.8125   -3.9816 C.ar      1 <0>         0.3582
     28 N2          3.9452   -1.2489   -3.6399 N.ar      1 <0>        -0.3574
     29 N3          3.5264   -1.2144   -2.4271 N.ar      1 <0>        -0.1967
     30 O4          5.5516   -0.8729   -5.2755 O.3       1 <0>        -0.7075
     31 O5          3.5486    2.1086   -0.0219 O.3       1 <0>        -0.4841
     32 H2         -0.9592    1.9101    0.0260 H         1 <0>         0.1157
     33 H3          1.1555    3.1696    0.0080 H         1 <0>         0.1276
     34 H4          1.2277   -1.7611   -0.0203 H         1 <0>         0.1397
     35 H5         -4.5418    1.3589    2.1872 H         1 <0>         0.1448
     36 H6         -4.5950    1.3640   -2.0777 H         1 <0>         0.1544
     37 H7         -6.5717    1.9698   -0.8096 H         1 <0>         0.1233
     38 H8         -6.5496    1.9676    0.9702 H         1 <0>         0.1015
     39 H9         -4.1237    3.5542    1.3903 H         1 <0>         0.4118
     40 H10        -4.7786    5.0644    1.3174 H         1 <0>         0.4326
     41 H11         4.4224   -0.2037    0.6181 H         1 <0>         0.0774
     42 H12         3.5638   -1.7320    0.3093 H         1 <0>         0.0765
     43 H13         6.1508    0.1440   -0.9060 H         1 <0>         0.1120
     44 H14         6.9797    0.0714   -3.2631 H         1 <0>         0.1152
     45 H15         3.8954    2.3054    0.8591 H         1 <0>         0.3798
     46 H16        -5.5770    3.8573    2.1051 H         1 <0>         0.4326
@<TRIPOS>BOND
     1    1    6 ar
     2    1    2 ar
     3    1   32 1
     4    2    3 ar
     5    2   33 1
     6    3    4 ar
     7    3   31 1
     8    4    5 ar
     9    4   23 1
    10    5    6 ar
    11    5   34 1
    12    6    7 1
    13    7    8 1
    14    8   13 ar
    15    8    9 ar
    16    9   10 ar
    17    9   22 1
    18   10   11 ar
    19   10   35 1
    20   11   12 ar
    21   11   15 1
    22   12   13 ar
    23   12   36 1
    24   13   14 1
    25   15   16 1
    26   15   37 1
    27   15   38 1
    28   16   17 1
    29   16   18 1
    30   16   21 1
    31   18   19 2
    32   18   20 1
    33   21   39 1
    34   21   40 1
    35   21   46 1
    36   23   41 1
    37   23   42 1
    38   23   24 1
    39   24   25 ar
    40   24   29 ar
    41   25   26 ar
    42   25   43 1
    43   26   27 ar
    44   26   44 1
    45   27   30 1
    46   27   28 ar
    47   28   29 ar
    48   31   45 1
@<TRIPOS>MOLECULE
CHEMBL163228__1
   47    49     0     0     0
SMALL
USER_CHARGES

@<TRIPOS>ATOM
      1 C1         -0.0167    1.3828    0.0096 C.ar      1 <0>        -0.1751
      2 C2          1.1701    2.0897    0.0021 C.ar      1 <0>        -0.1035
      3 C3          2.3804    1.4127   -0.0135 C.ar      1 <0>         0.0992
      4 C4          2.3993    0.0256   -0.0212 C.ar      1 <0>        -0.0586
      5 C5          1.2130   -0.6813   -0.0136 C.ar      1 <0>        -0.1097
      6 C6          0.0021   -0.0041    0.0020 C.ar      1 <0>         0.1186
      7 O1         -1.1660   -0.6999    0.0099 O.3       1 <0>        -0.2415
      8 C7         -2.3282    0.0045    0.0252 C.ar      1 <0>         0.1441
      9 C8         -2.9079    0.3634    1.2343 C.ar      1 <0>        -0.0946
     10 C9         -4.0901    1.0798    1.2467 C.ar      1 <0>        -0.0916
     11 C10        -4.6950    1.4389    0.0564 C.ar      1 <0>        -0.0936
     12 C11        -4.1201    1.0824   -1.1495 C.ar      1 <0>        -0.0528
     13 C12        -2.9348    0.3714   -1.1682 C.ar      1 <0>        -0.0921
     14 Br1        -2.1445   -0.1078   -2.8180 Br        1 <0>         0.0008
     15 C13        -5.9837    2.2199    0.0734 C.3       1 <0>        -0.0856
     16 C14        -5.6723    3.7178    0.0715 C.3       1 <0>        -0.0455
     17 H1         -5.0317    3.9547   -0.7781 H         1 <0>         0.1360
     18 C15        -6.9572    4.4979   -0.0354 C.2       1 <0>         0.4897
     19 O2         -7.5541    4.8308    0.9742 O.co2     1 <0>        -0.6635
     20 O3         -7.4000    4.7960   -1.1316 O.co2     1 <0>        -0.6309
     21 N1         -4.9840    4.0765    1.3187 N.4       1 <0>        -0.6170
     22 Br2        -2.0817   -0.1278    2.8628 Br        1 <0>        -0.0033
     23 C16         3.7145   -0.7099   -0.0382 C.3       1 <0>        -0.0086
     24 C17         4.2595   -0.7323   -1.4430 C.2       1 <0>         0.0644
     25 C18         5.4845   -1.3674   -1.7059 C.2       1 <0>        -0.0620
     26 C19         5.9504   -1.3703   -2.9900 C.2       1 <0>        -0.1838
     27 C20         5.1676   -0.7318   -3.9760 C.2       1 <0>         0.4761
     28 N2          4.0058   -0.1507   -3.6209 N.am      1 <0>        -0.4457
     29 N3          3.5878   -0.1665   -2.4071 N.2       1 <0>        -0.2001
     30 O4          5.5401   -0.7063   -5.1381 O.2       1 <0>        -0.5339
     31 O5          3.5486    2.1086   -0.0219 O.3       1 <0>        -0.4900
     32 H2         -0.9592    1.9101    0.0260 H         1 <0>         0.1208
     33 H3          1.1555    3.1696    0.0080 H         1 <0>         0.1322
     34 H4          1.2277   -1.7611   -0.0203 H         1 <0>         0.1384
     35 H5         -4.5418    1.3589    2.1872 H         1 <0>         0.1483
     36 H6         -4.5950    1.3640   -2.0777 H         1 <0>         0.1566
     37 H7         -6.5717    1.9698   -0.8096 H         1 <0>         0.1253
     38 H8         -6.5496    1.9676    0.9702 H         1 <0>         0.1042
     39 H9         -4.1237    3.5542    1.3903 H         1 <0>         0.4095
     40 H10        -4.7786    5.0644    1.3174 H         1 <0>         0.4338
     41 H11         4.4224   -0.2037    0.6181 H         1 <0>         0.1034
     42 H12         3.5638   -1.7320    0.3093 H         1 <0>         0.1025
     43 H13         6.0439   -1.8412   -0.9128 H         1 <0>         0.1544
     44 H14         6.8870   -1.8451   -3.2424 H         1 <0>         0.1647
     45 H15         3.4694    0.2875   -4.3000 H         1 <0>         0.4392
     46 H16         3.8954    2.3054    0.8591 H         1 <0>         0.3869
     47 H17        -5.5770    3.8573    2.1051 H         1 <0>         0.4340
@<TRIPOS>BOND
     1    1    6 ar
     2    1    2 ar
     3    1   32 1
     4    2    3 ar
     5    2   33 1
     6    3    4 ar
     7    3   31 1
     8    4    5 ar
     9    4   23 1
    10    5    6 ar
    11    5   34 1
    12    6    7 1
    13    7    8 1
    14    8   13 ar
    15    8    9 ar
    16    9   10 ar
    17    9   22 1
    18   10   11 ar
    19   10   35 1
    20   11   12 ar
    21   11   15 1
    22   12   13 ar
    23   12   36 1
    24   13   14 1
    25   15   16 1
    26   15   37 1
    27   15   38 1
    28   16   17 1
    29   16   18 1
    30   16   21 1
    31   18   19 2
    32   18   20 1
    33   21   39 1
    34   21   40 1
    35   21   47 1
    36   23   41 1
    37   23   42 1
    38   23   24 1
    39   24   25 1
    40   24   29 2
    41   25   26 2
    42   25   43 1
    43   26   27 1
    44   26   44 1
    45   27   30 2
    46   27   28 am
    47   28   29 1
    48   28   45 1
    49   31   46 1
@<TRIPOS>MOLECULE
CHEMBL425939
   39    41     0     0     0
SMALL
USER_CHARGES

@<TRIPOS>ATOM
      1 C1         -0.0187    1.5258    0.0104 C.3       1 <0>        -0.1429
      2 C2          0.0021   -0.0041    0.0020 C.3       1 <0>        -0.0539
      3 C3          0.7421   -0.5109    1.2415 C.3       1 <0>        -0.1452
      4 C4         -1.4117   -0.5257    0.0127 C.ar      1 <0>        -0.0651
      5 C5         -2.2586   -0.2044    1.0558 C.ar      1 <0>        -0.1255
      6 C6         -3.5600   -0.6842    1.0654 C.ar      1 <0>         0.1314
      7 C7         -4.0111   -1.4867    0.0273 C.ar      1 <0>        -0.1750
      8 C8         -3.1643   -1.8077   -1.0153 C.ar      1 <0>        -0.1000
      9 C9         -1.8643   -1.3235   -1.0275 C.ar      1 <0>         0.0668
     10 O1         -1.0324   -1.6350   -2.0569 O.3       1 <0>        -0.4941
     11 O2         -4.3934   -0.3684    2.0921 O.3       1 <0>        -0.2375
     12 C10        -5.6607   -0.8608    2.0602 C.ar      1 <0>         0.0979
     13 C11        -6.6732   -0.1305    1.4383 C.ar      1 <0>        -0.0977
     14 C12        -7.9619   -0.6138    1.3966 C.ar      1 <0>        -0.0599
     15 C13        -8.2648   -1.8418    1.9780 C.ar      1 <0>         0.0880
     16 C14        -7.2464   -2.5845    2.6073 C.ar      1 <0>        -0.0603
     17 C15        -5.9369   -2.0820    2.6381 C.ar      1 <0>        -0.0477
     18 Br1        -4.5588   -3.0713    3.4737 Br        1 <0>        -0.0262
     19 C16        -7.8408   -3.7698    3.0986 C.2       1 <0>        -0.1778
     20 C17        -9.1630   -3.7360    2.7750 C.2       1 <0>         0.0776
     21 N1         -9.4308   -2.5638    2.0913 N.pl3     1 <0>        -0.5537
     22 H1        -10.2976   -2.2950    1.7487 H         1 <0>         0.4265
     23 C18       -10.1443   -4.7751    3.0982 C.2       1 <0>         0.5403
     24 O3        -11.3126   -4.6412    2.7572 O.co2     1 <0>        -0.6788
     25 O4         -9.7959   -5.7773    3.7093 O.co2     1 <0>        -0.6557
     26 Br2        -6.2726    1.5389    0.6454 Br        1 <0>        -0.0315
     27 H2          1.0039    1.9031    0.0027 H         1 <0>         0.0570
     28 H3         -0.5459    1.8868   -0.8726 H         1 <0>         0.0561
     29 H4         -0.5289    1.8773    0.9072 H         1 <0>         0.0578
     30 H5          0.5123   -0.3556   -0.8948 H         1 <0>         0.0855
     31 H6          0.2319   -0.1594    2.1383 H         1 <0>         0.0588
     32 H7          0.7568   -1.6008    1.2356 H         1 <0>         0.0547
     33 H8          1.7647   -0.1336    1.2338 H         1 <0>         0.0575
     34 H9         -1.9072    0.4200    1.8639 H         1 <0>         0.1341
     35 H10        -5.0243   -1.8606    0.0348 H         1 <0>         0.1293
     36 H11        -3.5153   -2.4327   -1.8232 H         1 <0>         0.1299
     37 H12        -0.5228   -2.4453   -1.9194 H         1 <0>         0.3827
     38 H13        -8.7382   -0.0395    0.9130 H         1 <0>         0.1406
     39 H14        -7.3364   -4.5604    3.6343 H         1 <0>         0.1560
@<TRIPOS>BOND
     1    1    2 1
     2    1   27 1
     3    1   28 1
     4    1   29 1
     5    2    3 1
     6    2    4 1
     7    2   30 1
     8    3   31 1
     9    3   32 1
    10    3   33 1
    11    4    9 ar
    12    4    5 ar
    13    5    6 ar
    14    5   34 1
    15    6    7 ar
    16    6   11 1
    17    7    8 ar
    18    7   35 1
    19    8    9 ar
    20    8   36 1
    21    9   10 1
    22   10   37 1
    23   11   12 1
    24   12   17 ar
    25   12   13 ar
    26   13   14 ar
    27   13   26 1
    28   14   15 ar
    29   14   38 1
    30   15   21 1
    31   15   16 ar
    32   16   17 ar
    33   16   19 1
    34   17   18 1
    35   19   20 2
    36   19   39 1
    37   20   21 1
    38   20   23 1
    39   21   22 1
    40   23   24 2
    41   23   25 1
@<TRIPOS>MOLECULE
CHEMBL338602
   51    55     0     0     0
SMALL
USER_CHARGES

@<TRIPOS>ATOM
      1 C1          0.0137    0.9472    0.7827 C.ar      1 <0>        -0.1513
      2 C2          1.2121    1.4560    1.2421 C.ar      1 <0>        -0.1079
      3 C3          2.3803    0.7232    1.0992 C.ar      1 <0>         0.1350
      4 C4          2.3420   -0.5366    0.4867 C.ar      1 <0>        -0.1188
      5 C5          1.1256   -1.0441    0.0248 C.ar      1 <0>        -0.0937
      6 C6         -0.0315   -0.3013    0.1744 C.ar      1 <0>         0.1091
      7 O1         -1.2164   -0.7941   -0.2748 O.3       1 <0>        -0.2358
      8 C7         -2.3294   -0.0313   -0.1077 C.ar      1 <0>         0.1072
      9 C8         -3.0862   -0.1522    1.0501 C.ar      1 <0>        -0.0254
     10 C9         -4.2172    0.6227    1.2202 C.ar      1 <0>        -0.0789
     11 C10        -4.5972    1.5228    0.2329 C.ar      1 <0>         0.1864
     12 C11        -3.8399    1.6435   -0.9252 C.ar      1 <0>        -0.0735
     13 C12        -2.7058    0.8724   -1.0923 C.ar      1 <0>        -0.0220
     14 Cl1        -1.7553    1.0282   -2.5366 Cl        1 <0>        -0.0165
     15 N1         -5.7439    2.3081    0.4048 N.am      1 <0>        -0.4045
     16 C13        -6.6592    2.3704   -0.5786 C.2       1 <0>         0.6842
     17 O2         -6.4790    1.7437   -1.6048 O.2       1 <0>        -0.5103
     18 N2         -7.7721    3.1158   -0.4438 N.am      1 <0>        -0.6531
     19 H1         -8.4227    3.1498   -1.1624 H         1 <0>         0.4402
     20 C14        -7.9832    3.8152    0.6904 C.2       1 <0>         0.5165
     21 O3         -8.9875    4.4908    0.8198 O.2       1 <0>        -0.4658
     22 C15        -6.9890    3.7511    1.7646 C.2       1 <0>         0.0694
     23 N3         -5.9252    3.0135    1.6004 N.2       1 <0>        -0.1683
     24 Cl2        -2.6116   -1.2775    2.2838 Cl        1 <0>        -0.0169
     25 C16         3.5806   -1.3229    0.3303 C.2       1 <0>         0.5879
     26 O4          4.3829   -1.3812    1.2420 O.2       1 <0>        -0.5269
     27 N4          3.8227   -1.9765   -0.8233 N.am      1 <0>        -0.6145
     28 C17         3.0151   -1.9137   -2.0593 C.3       1 <0>         0.0997
     29 C18         3.7531   -2.8357   -3.0791 C.3       1 <0>        -0.1107
     30 C19         3.5081   -4.2760   -2.5298 C.3       1 <0>        -0.1219
     31 C20         4.2998   -4.3134   -1.2017 C.3       1 <0>        -0.1374
     32 C21         4.9613   -2.8984   -1.1022 C.3       1 <0>         0.1278
     33 C22         5.2355   -2.5998   -2.6142 C.3       1 <0>        -0.1365
     34 O5          3.5578    1.2247    1.5509 O.3       1 <0>        -0.4859
     35 H2         -0.8939    1.5206    0.9007 H         1 <0>         0.1327
     36 H3          1.2397    2.4273    1.7135 H         1 <0>         0.1433
     37 H4          1.0886   -2.0141   -0.4486 H         1 <0>         0.1452
     38 H5         -4.8061    0.5284    2.1206 H         1 <0>         0.1594
     39 H6         -4.1352    2.3432   -1.6931 H         1 <0>         0.1570
     40 H7         -7.1369    4.3026    2.6813 H         1 <0>         0.2341
     41 H8          2.0082   -2.2869   -1.8722 H         1 <0>         0.0759
     42 H9          2.9763   -0.8908   -2.4339 H         1 <0>         0.0706
     43 H10         3.5365   -2.6643   -4.1335 H         1 <0>         0.1192
     44 H11         2.4461   -4.4388   -2.3458 H         1 <0>         0.0689
     45 H12         3.8945   -5.0207   -3.2256 H         1 <0>         0.0716
     46 H13         3.6258   -4.4802   -0.3615 H         1 <0>         0.0694
     47 H14         5.0651   -5.0888   -1.2366 H         1 <0>         0.0772
     48 H15         5.8129   -2.8160   -0.4269 H         1 <0>         0.1211
     49 H16         5.9255   -3.3174   -3.0583 H         1 <0>         0.0895
     50 H17         5.5589   -1.5715   -2.7754 H         1 <0>         0.0781
     51 H18         3.7583    0.9925    2.4679 H         1 <0>         0.4000
@<TRIPOS>BOND
     1    1    6 ar
     2    1    2 ar
     3    1   35 1
     4    2    3 ar
     5    2   36 1
     6    3    4 ar
     7    3   34 1
     8    4    5 ar
     9    4   25 1
    10    5    6 ar
    11    5   37 1
    12    6    7 1
    13    7    8 1
    14    8   13 ar
    15    8    9 ar
    16    9   10 ar
    17    9   24 1
    18   10   11 ar
    19   10   38 1
    20   11   12 ar
    21   11   15 1
    22   12   13 ar
    23   12   39 1
    24   13   14 1
    25   15   23 1
    26   15   16 am
    27   16   17 2
    28   16   18 am
    29   18   19 1
    30   18   20 am
    31   20   21 2
    32   20   22 1
    33   22   23 2
    34   22   40 1
    35   25   26 2
    36   25   27 am
    37   27   32 1
    38   27   28 1
    39   28   29 1
    40   28   41 1
    41   28   42 1
    42   29   33 1
    43   29   30 1
    44   29   43 1
    45   30   31 1
    46   30   44 1
    47   30   45 1
    48   31   32 1
    49   31   46 1
    50   31   47 1
    51   32   33 1
    52   32   48 1
    53   33   49 1
    54   33   50 1
    55   34   51 1
@<TRIPOS>MOLECULE
CHEMBL338602__1
   50    54     0     0     0
SMALL
USER_CHARGES

@<TRIPOS>ATOM
      1 C1          0.0557    0.9937    0.8297 C.ar      1 <0>        -0.1493
      2 C2          1.2576    1.4993    1.2836 C.ar      1 <0>        -0.1073
      3 C3          2.4235    0.7643    1.1330 C.ar      1 <0>         0.1274
      4 C4          2.3793   -0.4943    0.5185 C.ar      1 <0>        -0.1225
      5 C5          1.1594   -0.9985    0.0622 C.ar      1 <0>        -0.0990
      6 C6          0.0047   -0.2535    0.2194 C.ar      1 <0>         0.1164
      7 O1         -1.1836   -0.7430   -0.2244 O.3       1 <0>        -0.2341
      8 C7         -2.2940    0.0216   -0.0499 C.ar      1 <0>         0.0820
      9 C8         -3.0449   -0.0999    1.1118 C.ar      1 <0>        -0.0224
     10 C9         -4.1733    0.6768    1.2894 C.ar      1 <0>        -0.0908
     11 C10        -4.5568    1.5797    0.3057 C.ar      1 <0>         0.2018
     12 C11        -3.8053    1.7010   -0.8564 C.ar      1 <0>        -0.0726
     13 C12        -2.6738    0.9280   -1.0309 C.ar      1 <0>        -0.0191
     14 Cl1        -1.7307    1.0846   -2.4800 Cl        1 <0>        -0.0326
     15 N1         -5.7003    2.3666    0.4852 N.am      1 <0>        -0.3718
     16 C13        -6.6195    2.4261   -0.4951 C.2       1 <0>         0.6175
     17 O2         -6.4478    1.7960   -1.5256 O.2       1 <0>        -0.5689
     18 N2         -7.7196    3.1700   -0.3480 N.2       1 <0>        -0.6230
     19 C14        -7.8938    3.8494    0.7774 C.2       1 <0>         0.4331
     20 O3         -8.9957    4.6113    0.9585 O.3       1 <0>        -0.6441
     21 C15        -6.9066    3.7615    1.7831 C.2       1 <0>         0.0084
     22 N3         -5.8532    3.0140    1.5865 N.2       1 <0>        -0.2228
     23 Cl2        -2.5659   -1.2286    2.3408 Cl        1 <0>        -0.0349
     24 C16         3.6155   -1.2828    0.3539 C.2       1 <0>         0.5909
     25 O4          4.4205   -1.3481    1.2629 O.2       1 <0>        -0.5310
     26 N4          3.8525   -1.9307   -0.8039 N.am      1 <0>        -0.6150
     27 C17         3.0409   -1.8594   -2.0369 C.3       1 <0>         0.0992
     28 C18         3.7736   -2.7776   -3.0641 C.3       1 <0>        -0.1104
     29 C19         3.5272   -4.2202   -2.5218 C.3       1 <0>        -0.1219
     30 C20         4.3231   -4.2666   -1.1965 C.3       1 <0>        -0.1371
     31 C21         4.9881   -2.8536   -1.0916 C.3       1 <0>         0.1278
     32 C22         5.2580   -2.5474   -2.6028 C.3       1 <0>        -0.1363
     33 O5          3.6045    1.2626    1.5793 O.3       1 <0>        -0.4874
     34 H1         -0.8501    1.5687    0.9536 H         1 <0>         0.1360
     35 H2          1.2897    2.4696    1.7566 H         1 <0>         0.1417
     36 H3          1.1179   -1.9676   -0.4127 H         1 <0>         0.1428
     37 H4         -4.7575    0.5821    2.1928 H         1 <0>         0.1546
     38 H5         -4.1034    2.4025   -1.6215 H         1 <0>         0.1566
     39 H6         -7.0234    4.3046    2.7094 H         1 <0>         0.1839
     40 H7          2.0338   -2.2314   -1.8486 H         1 <0>         0.0776
     41 H8          3.0032   -0.8344   -2.4058 H         1 <0>         0.0713
     42 H9          3.5540   -2.5999   -4.1169 H         1 <0>         0.1188
     43 H10         2.4655   -4.3817   -2.3353 H         1 <0>         0.0698
     44 H11         3.9096   -4.9620   -3.2229 H         1 <0>         0.0702
     45 H12         3.6515   -4.4365   -0.3550 H         1 <0>         0.0697
     46 H13         5.0865   -5.0434   -1.2381 H         1 <0>         0.0753
     47 H14         5.8420   -2.7767   -0.4186 H         1 <0>         0.1197
     48 H15         5.9450   -3.2641   -3.0530 H         1 <0>         0.0877
     49 H16         5.5832   -1.5189   -2.7595 H         1 <0>         0.0776
     50 H17         3.8095    1.0283    2.4948 H         1 <0>         0.3966
@<TRIPOS>BOND
     1    1    6 ar
     2    1    2 ar
     3    1   34 1
     4    2    3 ar
     5    2   35 1
     6    3    4 ar
     7    3   33 1
     8    4    5 ar
     9    4   24 1
    10    5    6 ar
    11    5   36 1
    12    6    7 1
    13    7    8 1
    14    8   13 ar
    15    8    9 ar
    16    9   10 ar
    17    9   23 1
    18   10   11 ar
    19   10   37 1
    20   11   12 ar
    21   11   15 1
    22   12   13 ar
    23   12   38 1
    24   13   14 1
    25   15   22 1
    26   15   16 am
    27   16   17 2
    28   16   18 1
    29   18   19 2
    30   19   20 1
    31   19   21 1
    32   21   22 2
    33   21   39 1
    34   24   25 2
    35   24   26 am
    36   26   31 1
    37   26   27 1
    38   27   28 1
    39   27   40 1
    40   27   41 1
    41   28   32 1
    42   28   29 1
    43   28   42 1
    44   29   30 1
    45   29   43 1
    46   29   44 1
    47   30   31 1
    48   30   45 1
    49   30   46 1
    50   31   32 1
    51   31   47 1
    52   32   48 1
    53   32   49 1
    54   33   50 1
@<TRIPOS>MOLECULE
CHEMBL338602__2
   51    55     0     0     0
SMALL
USER_CHARGES

@<TRIPOS>ATOM
      1 C1          0.2684    1.4631    0.2650 C.ar      1 <0>        -0.1530
      2 C2          1.5065    2.0717    0.2114 C.ar      1 <0>        -0.1064
      3 C3          2.6612    1.3115    0.3154 C.ar      1 <0>         0.1315
      4 C4          2.5689   -0.0776    0.4753 C.ar      1 <0>        -0.1154
      5 C5          1.3126   -0.6854    0.5286 C.ar      1 <0>        -0.0959
      6 C6          0.1696    0.0862    0.4234 C.ar      1 <0>         0.1108
      7 O1         -1.0541   -0.5042    0.4752 O.3       1 <0>        -0.2357
      8 C7         -2.1515    0.2911    0.3679 C.ar      1 <0>         0.1071
      9 C8         -2.7248    0.8404    1.5070 C.ar      1 <0>        -0.0247
     10 C9         -3.8400    1.6486    1.3983 C.ar      1 <0>        -0.0792
     11 C10        -4.3877    1.9117    0.1492 C.ar      1 <0>         0.1864
     12 C11        -3.8140    1.3621   -0.9901 C.ar      1 <0>        -0.0733
     13 C12        -2.6955    0.5586   -0.8813 C.ar      1 <0>        -0.0225
     14 Cl1        -1.9742   -0.1225   -2.3059 Cl        1 <0>        -0.0152
     15 N1         -5.5184    2.7305    0.0388 N.am      1 <0>        -0.4045
     16 C13        -6.5697    2.3155   -0.6902 C.2       1 <0>         0.6841
     17 O2         -6.5246    1.2341   -1.2442 O.2       1 <0>        -0.5101
     18 N2         -7.6712    3.0792   -0.8154 N.am      1 <0>        -0.6531
     19 H1         -8.4211    2.7652   -1.3446 H         1 <0>         0.4402
     20 C14        -7.7331    4.2807   -0.2051 C.2       1 <0>         0.5165
     21 O3         -8.7261    4.9763   -0.3132 O.2       1 <0>        -0.4658
     22 C15        -6.5904    4.7377    0.5898 C.2       1 <0>         0.0694
     23 N3         -5.5419    3.9679    0.6932 N.2       1 <0>        -0.1683
     24 Cl2        -2.0405    0.5110    3.0681 Cl        1 <0>        -0.0183
     25 C16         3.7928   -0.8941    0.5863 C.2       1 <0>         0.5794
     26 O4          4.7176   -0.7107   -0.1815 O.2       1 <0>        -0.5119
     27 N4          3.8857   -1.8431    1.5388 N.am      1 <0>        -0.6166
     28 C17         2.8196   -2.2645    2.4714 C.3       1 <0>         0.1013
     29 C18         3.4682   -3.3671    3.3649 C.3       1 <0>        -0.1113
     30 C19         3.6394   -4.5813    2.3993 C.3       1 <0>        -0.1220
     31 C20         4.7065   -4.1090    1.3842 C.3       1 <0>        -0.1386
     32 C21         5.0823   -2.6763    1.8518 C.3       1 <0>         0.1286
     33 C22         4.9432   -2.8272    3.4110 C.3       1 <0>        -0.1354
     34 O5          3.8778    1.9110    0.2621 O.3       1 <0>        -0.4783
     35 H2         -0.6279    2.0608    0.1880 H         1 <0>         0.1327
     36 H3          1.5756    3.1424    0.0878 H         1 <0>         0.1433
     37 H4          1.2338   -1.7555    0.6513 H         1 <0>         0.1450
     38 H5         -4.2861    2.0754    2.2844 H         1 <0>         0.1594
     39 H6         -4.2397    1.5666   -1.9614 H         1 <0>         0.1570
     40 H7         -6.6175    5.6959    1.0873 H         1 <0>         0.2341
     41 H8          2.4987   -1.4220    3.0841 H         1 <0>         0.0707
     42 H9          1.9743   -2.6746    1.9188 H         1 <0>         0.0743
     43 H10         2.9866   -3.5606    4.3234 H         1 <0>         0.1191
     44 H11         3.9925   -5.4562    2.9450 H         1 <0>         0.0715
     45 H12         2.7001   -4.8005    1.8915 H         1 <0>         0.0686
     46 H13         5.5786   -4.7621    1.4174 H         1 <0>         0.0774
     47 H14         4.2886   -4.0816    0.3779 H         1 <0>         0.0702
     48 H15         6.0337   -2.2960    1.4799 H         1 <0>         0.1196
     49 H16         5.0157   -1.8707    3.9287 H         1 <0>         0.0778
     50 H17         5.6384   -3.5625    3.8162 H         1 <0>         0.0889
     51 H18         4.2185    2.1868    1.1240 H         1 <0>         0.3906
@<TRIPOS>BOND
     1    1    6 ar
     2    1    2 ar
     3    1   35 1
     4    2    3 ar
     5    2   36 1
     6    3    4 ar
     7    3   34 1
     8    4    5 ar
     9    4   25 1
    10    5    6 ar
    11    5   37 1
    12    6    7 1
    13    7    8 1
    14    8   13 ar
    15    8    9 ar
    16    9   10 ar
    17    9   24 1
    18   10   11 ar
    19   10   38 1
    20   11   12 ar
    21   11   15 1
    22   12   13 ar
    23   12   39 1
    24   13   14 1
    25   15   23 1
    26   15   16 am
    27   16   17 2
    28   16   18 am
    29   18   19 1
    30   18   20 am
    31   20   21 2
    32   20   22 1
    33   22   23 2
    34   22   40 1
    35   25   26 2
    36   25   27 am
    37   27   32 1
    38   27   28 1
    39   28   29 1
    40   28   41 1
    41   28   42 1
    42   29   33 1
    43   29   30 1
    44   29   43 1
    45   30   31 1
    46   30   44 1
    47   30   45 1
    48   31   32 1
    49   31   46 1
    50   31   47 1
    51   32   33 1
    52   32   48 1
    53   33   49 1
    54   33   50 1
    55   34   51 1
@<TRIPOS>MOLECULE
CHEMBL338602__3
   50    54     0     0     0
SMALL
USER_CHARGES

@<TRIPOS>ATOM
      1 C1          0.1807    1.4152    0.3349 C.ar      1 <0>        -0.1510
      2 C2          1.4072    2.0458    0.2713 C.ar      1 <0>        -0.1057
      3 C3          2.5762    1.3045    0.3502 C.ar      1 <0>         0.1238
      4 C4          2.5100   -0.0878    0.4947 C.ar      1 <0>        -0.1192
      5 C5          1.2652   -0.7179    0.5581 C.ar      1 <0>        -0.1013
      6 C6          0.1077    0.0350    0.4781 C.ar      1 <0>         0.1181
      7 O1         -1.1047   -0.5771    0.5397 O.3       1 <0>        -0.2340
      8 C7         -2.2170    0.2002    0.4572 C.ar      1 <0>         0.0818
      9 C8         -2.7835    0.7259    1.6108 C.ar      1 <0>        -0.0218
     10 C9         -3.9137    1.5158    1.5273 C.ar      1 <0>        -0.0912
     11 C10        -4.4836    1.7841    0.2891 C.ar      1 <0>         0.2018
     12 C11        -3.9165    1.2580   -0.8648 C.ar      1 <0>        -0.0724
     13 C12        -2.7830    0.4729   -0.7812 C.ar      1 <0>        -0.0197
     14 Cl1        -2.0702   -0.1788   -2.2237 Cl        1 <0>        -0.0312
     15 N1         -5.6290    2.5840    0.2042 N.am      1 <0>        -0.3718
     16 C13        -6.6812    2.1537   -0.5149 C.2       1 <0>         0.6175
     17 O2         -6.6264    1.0753   -1.0827 O.2       1 <0>        -0.5687
     18 N2         -7.7861    2.8988   -0.6113 N.2       1 <0>        -0.6230
     19 C14        -7.8322    4.0687    0.0113 C.2       1 <0>         0.4331
     20 O3         -8.9349    4.8468   -0.0655 O.3       1 <0>        -0.6441
     21 C15        -6.7076    4.4860    0.7564 C.2       1 <0>         0.0085
     22 N3         -5.6558    3.7135    0.8199 N.2       1 <0>        -0.2230
     23 Cl2        -2.0718    0.3901    3.1582 Cl        1 <0>        -0.0362
     24 C16         3.7493   -0.8841    0.5788 C.2       1 <0>         0.5825
     25 O4          4.6589   -0.6774   -0.2011 O.2       1 <0>        -0.5156
     26 N4          3.8730   -1.8406    1.5202 N.am      1 <0>        -0.6174
     27 C17         2.8283   -2.2901    2.4640 C.3       1 <0>         0.1009
     28 C18         3.5094   -3.3898    3.3368 C.3       1 <0>        -0.1111
     29 C19         3.6878   -4.5911    2.3566 C.3       1 <0>        -0.1218
     30 C20         4.7313   -4.0900    1.3309 C.3       1 <0>        -0.1382
     31 C21         5.0886   -2.6554    1.8074 C.3       1 <0>         0.1286
     32 C22         4.9752   -2.8241    3.3668 C.3       1 <0>        -0.1353
     33 O5          3.7814    1.9256    0.2871 O.3       1 <0>        -0.4795
     34 H1         -0.7267    1.9981    0.2775 H         1 <0>         0.1360
     35 H2          1.4562    3.1188    0.1596 H         1 <0>         0.1417
     36 H3          1.2066   -1.7906    0.6691 H         1 <0>         0.1426
     37 H4         -4.3545    1.9244    2.4246 H         1 <0>         0.1547
     38 H5         -4.3595    1.4662   -1.8276 H         1 <0>         0.1567
     39 H6         -6.7185    5.4343    1.2732 H         1 <0>         0.1839
     40 H7          2.5016   -1.4595    3.0897 H         1 <0>         0.0716
     41 H8          1.9824   -2.7098    1.9196 H         1 <0>         0.0756
     42 H9          3.0455   -3.6012    4.3002 H         1 <0>         0.1186
     43 H10         4.0644   -5.4650    2.8883 H         1 <0>         0.0700
     44 H11         2.7452   -4.8221    1.8603 H         1 <0>         0.0694
     45 H12         5.6152   -4.7276    1.3448 H         1 <0>         0.0756
     46 H13         4.2982   -4.0601    0.3311 H         1 <0>         0.0704
     47 H14         6.0276   -2.2545    1.4256 H         1 <0>         0.1183
     48 H15         5.0383   -1.8716    3.8931 H         1 <0>         0.0774
     49 H16         5.6892   -3.5507    3.7544 H         1 <0>         0.0870
     50 H17         4.1294    2.1972    1.1475 H         1 <0>         0.3870
@<TRIPOS>BOND
     1    1    6 ar
     2    1    2 ar
     3    1   34 1
     4    2    3 ar
     5    2   35 1
     6    3    4 ar
     7    3   33 1
     8    4    5 ar
     9    4   24 1
    10    5    6 ar
    11    5   36 1
    12    6    7 1
    13    7    8 1
    14    8   13 ar
    15    8    9 ar
    16    9   10 ar
    17    9   23 1
    18   10   11 ar
    19   10   37 1
    20   11   12 ar
    21   11   15 1
    22   12   13 ar
    23   12   38 1
    24   13   14 1
    25   15   22 1
    26   15   16 am
    27   16   17 2
    28   16   18 1
    29   18   19 2
    30   19   20 1
    31   19   21 1
    32   21   22 2
    33   21   39 1
    34   24   25 2
    35   24   26 am
    36   26   31 1
    37   26   27 1
    38   27   28 1
    39   27   40 1
    40   27   41 1
    41   28   32 1
    42   28   29 1
    43   28   42 1
    44   29   30 1
    45   29   43 1
    46   29   44 1
    47   30   31 1
    48   30   45 1
    49   30   46 1
    50   31   32 1
    51   31   47 1
    52   32   48 1
    53   32   49 1
    54   33   50 1
@<TRIPOS>MOLECULE
CHEMBL195556
   39    39     0     0     0
SMALL
USER_CHARGES

@<TRIPOS>ATOM
      1 C1         -0.0187    1.5258    0.0104 C.3       1 <0>        -0.1533
      2 C2          0.0021   -0.0041    0.0020 C.3       1 <0>        -0.1262
      3 C3         -1.4333   -0.5336    0.0129 C.3       1 <0>        -0.1182
      4 C4         -1.4126   -2.0635    0.0045 C.3       1 <0>        -0.1176
      5 C5         -2.8479   -2.5931    0.0153 C.3       1 <0>        -0.1139
      6 C6         -2.8272   -4.1229    0.0069 C.3       1 <0>         0.0643
      7 O1         -4.1678   -4.6175    0.0171 O.3       1 <0>        -0.3178
      8 C7         -4.3276   -5.9674    0.0113 C.ar      1 <0>         0.1334
      9 C8         -4.4151   -6.6520   -1.1927 C.ar      1 <0>        -0.1030
     10 C9         -4.5771   -8.0249   -1.1955 C.ar      1 <0>        -0.0653
     11 C10        -4.6525   -8.7158   -0.0003 C.ar      1 <0>        -0.0551
     12 C11        -4.5661   -8.0363    1.2007 C.ar      1 <0>        -0.0653
     13 C12        -4.3979   -6.6642    1.2094 C.ar      1 <0>        -0.1029
     14 Br1        -4.2720   -5.7367    2.8525 Br        1 <0>        -0.0351
     15 C13        -4.8296  -10.2124   -0.0067 C.3       1 <0>        -0.0605
     16 C14        -3.4571  -10.8884   -0.0165 C.3       1 <0>        -0.1770
     17 C15        -3.6342  -12.3849   -0.0228 C.2       1 <0>         0.4905
     18 O2         -4.7544  -12.8662   -0.0198 O.co2     1 <0>        -0.6969
     19 O3         -2.6574  -13.1144   -0.0310 O.co2     1 <0>        -0.7031
     20 Br2        -4.3133   -5.7077   -2.8278 Br        1 <0>        -0.0351
     21 H1          1.0039    1.9031    0.0027 H         1 <0>         0.0525
     22 H2         -0.5459    1.8868   -0.8726 H         1 <0>         0.0532
     23 H3         -0.5289    1.8773    0.9072 H         1 <0>         0.0532
     24 H4          0.5123   -0.3556   -0.8948 H         1 <0>         0.0611
     25 H5          0.5293   -0.3651    0.8851 H         1 <0>         0.0611
     26 H6         -1.9435   -0.1821    0.9097 H         1 <0>         0.0627
     27 H7         -1.9605   -0.1726   -0.8702 H         1 <0>         0.0627
     28 H8         -0.9024   -2.4150   -0.8923 H         1 <0>         0.0646
     29 H9         -0.8854   -2.4246    0.8875 H         1 <0>         0.0646
     30 H10        -3.3581   -2.2415    0.9121 H         1 <0>         0.0729
     31 H11        -3.3751   -2.2320   -0.8677 H         1 <0>         0.0729
     32 H12        -2.3170   -4.4744   -0.8899 H         1 <0>         0.0562
     33 H13        -2.3000   -4.4840    0.8900 H         1 <0>         0.0562
     34 H14        -4.6452   -8.5581   -2.1322 H         1 <0>         0.1441
     35 H15        -4.6257   -8.5785    2.1328 H         1 <0>         0.1441
     36 H16        -5.3784  -10.5171    0.8845 H         1 <0>         0.0792
     37 H17        -5.3868  -10.5085   -0.8955 H         1 <0>         0.0792
     38 H18        -2.9084  -10.5837   -0.9076 H         1 <0>         0.0590
     39 H19        -2.8999  -10.5922    0.8723 H         1 <0>         0.0590
@<TRIPOS>BOND
     1    1    2 1
     2    1   21 1
     3    1   22 1
     4    1   23 1
     5    2    3 1
     6    2   24 1
     7    2   25 1
     8    3    4 1
     9    3   26 1
    10    3   27 1
    11    4    5 1
    12    4   28 1
    13    4   29 1
    14    5    6 1
    15    5   30 1
    16    5   31 1
    17    6    7 1
    18    6   32 1
    19    6   33 1
    20    7    8 1
    21    8   13 ar
    22    8    9 ar
    23    9   10 ar
    24    9   20 1
    25   10   11 ar
    26   10   34 1
    27   11   12 ar
    28   11   15 1
    29   12   13 ar
    30   12   35 1
    31   13   14 1
    32   15   16 1
    33   15   36 1
    34   15   37 1
    35   16   17 1
    36   16   38 1
    37   16   39 1
    38   17   18 2
    39   17   19 1
@<TRIPOS>MOLECULE
CHEMBL561574
   64    65     0     0     0
SMALL
USER_CHARGES

@<TRIPOS>ATOM
      1 C1         -0.0187    1.5258    0.0104 C.3       1 <0>        -0.1551
      2 C2          0.0021   -0.0041    0.0020 C.3       1 <0>        -0.1255
      3 C3         -1.4333   -0.5336    0.0129 C.3       1 <0>        -0.1259
      4 C4         -1.4126   -2.0635    0.0045 C.3       1 <0>        -0.1121
      5 C5         -2.8479   -2.5931    0.0153 C.3       1 <0>        -0.1167
      6 C6         -2.8272   -4.1229    0.0069 C.3       1 <0>        -0.6023
      7 S1         -4.5290   -4.7508    0.0198 S.o2      1 <0>         2.4894
      8 O1         -5.1513   -4.4527    1.2620 O.2       1 <0>        -0.9265
      9 O2         -5.1749   -4.4395   -1.2071 O.2       1 <0>        -0.9262
     10 C7         -4.3645   -6.5051    0.0088 C.ar      1 <0>        -0.6256
     11 C8         -4.3060   -7.1835   -1.1970 C.ar      1 <0>        -0.0340
     12 C9         -4.1774   -8.5555   -1.2152 C.ar      1 <0>        -0.0808
     13 C10        -4.1054   -9.2640   -0.0109 C.ar      1 <0>        -0.1092
     14 C11        -4.1647   -8.5715    1.2041 C.ar      1 <0>        -0.0115
     15 C12        -4.2889   -7.1961    1.2044 C.ar      1 <0>        -0.0278
     16 Cl1        -4.0771   -9.4382    2.7057 Cl        1 <0>        -0.0191
     17 C13        -3.9686  -10.7283   -0.0214 C.2       1 <0>         0.3849
     18 O3         -3.9065  -11.3390    1.0243 O.2       1 <0>        -0.4148
     19 C14        -3.9055  -11.4698   -1.3319 C.3       1 <0>        -0.1620
     20 C15        -3.7641  -12.9693   -1.0632 C.3       1 <0>         0.0638
     21 N1         -3.7027  -13.6921   -2.3406 N.3       1 <0>        -0.5365
     22 C16        -4.9721  -13.5789   -3.0711 C.3       1 <0>         0.0371
     23 C17        -4.8097  -14.1871   -4.4682 C.3       1 <0>         0.1214
     24 N2         -4.2950  -15.5574   -4.3242 N.pl3     1 <0>        -1.0037
     25 C18        -3.1014  -15.7685   -3.4913 C.3       1 <0>         0.1216
     26 C19        -3.3311  -15.0980   -2.1327 C.3       1 <0>         0.0446
     27 S2         -5.0395  -16.8287   -5.0804 S.o2      1 <0>         2.6053
     28 O4         -4.7189  -17.9618   -4.2851 O.2       1 <0>        -0.9522
     29 O5         -6.3894  -16.4150   -5.2410 O.2       1 <0>        -0.9525
     30 C20        -4.2267  -16.9501   -6.6975 C.3       1 <0>        -0.6298
     31 C21        -4.8410  -18.1045   -7.4918 C.3       1 <0>        -0.1486
     32 H1          1.0039    1.9031    0.0027 H         1 <0>         0.0542
     33 H2         -0.5459    1.8868   -0.8726 H         1 <0>         0.0543
     34 H3         -0.5289    1.8773    0.9072 H         1 <0>         0.0543
     35 H4          0.5123   -0.3556   -0.8948 H         1 <0>         0.0614
     36 H5          0.5293   -0.3651    0.8851 H         1 <0>         0.0615
     37 H6         -1.9435   -0.1821    0.9097 H         1 <0>         0.0655
     38 H7         -1.9605   -0.1726   -0.8702 H         1 <0>         0.0655
     39 H8         -0.9024   -2.4150   -0.8923 H         1 <0>         0.0683
     40 H9         -0.8854   -2.4246    0.8875 H         1 <0>         0.0683
     41 H10        -3.3581   -2.2415    0.9121 H         1 <0>         0.0831
     42 H11        -3.3751   -2.2320   -0.8677 H         1 <0>         0.0832
     43 H12        -2.3170   -4.4744   -0.8899 H         1 <0>         0.1391
     44 H13        -2.3000   -4.4840    0.8900 H         1 <0>         0.1387
     45 H14        -4.3616   -6.6357   -2.1261 H         1 <0>         0.1568
     46 H15        -4.1326   -9.0825   -2.1568 H         1 <0>         0.1540
     47 H16        -4.3308   -6.6591    2.1405 H         1 <0>         0.1590
     48 H17        -4.8192  -11.2866   -1.8973 H         1 <0>         0.1034
     49 H18        -3.0470  -11.1209   -1.9058 H         1 <0>         0.1134
     50 H19        -2.8504  -13.1525   -0.4978 H         1 <0>         0.0860
     51 H20        -4.6226  -13.3181   -0.4893 H         1 <0>         0.0453
     52 H21        -5.7522  -14.1141   -2.5298 H         1 <0>         0.0442
     53 H22        -5.2472  -12.5280   -3.1616 H         1 <0>         0.0901
     54 H23        -5.7759  -14.2099   -4.9722 H         1 <0>         0.0987
     55 H24        -4.1052  -13.5904   -5.0477 H         1 <0>         0.0787
     56 H25        -2.9381  -16.8368   -3.3495 H         1 <0>         0.0991
     57 H26        -2.2327  -15.3238   -3.9769 H         1 <0>         0.0788
     58 H27        -2.4160  -15.1489   -1.5426 H         1 <0>         0.0910
     59 H28        -4.1340  -15.6121   -1.6044 H         1 <0>         0.0441
     60 H29        -4.3657  -16.0178   -7.2450 H         1 <0>         0.1309
     61 H30        -3.1615  -17.1329   -6.5559 H         1 <0>         0.1309
     62 H31        -4.3526  -18.1774   -8.4635 H         1 <0>         0.0831
     63 H32        -4.7020  -19.0367   -6.9444 H         1 <0>         0.0726
     64 H33        -5.9062  -17.9217   -7.6334 H         1 <0>         0.0726
@<TRIPOS>BOND
     1    1    2 1
     2    1   32 1
     3    1   33 1
     4    1   34 1
     5    2    3 1
     6    2   35 1
     7    2   36 1
     8    3    4 1
     9    3   37 1
    10    3   38 1
    11    4    5 1
    12    4   39 1
    13    4   40 1
    14    5    6 1
    15    5   41 1
    16    5   42 1
    17    6    7 1
    18    6   43 1
    19    6   44 1
    20    7    8 2
    21    7    9 2
    22    7   10 1
    23   10   15 ar
    24   10   11 ar
    25   11   12 ar
    26   11   45 1
    27   12   13 ar
    28   12   46 1
    29   13   14 ar
    30   13   17 1
    31   14   15 ar
    32   14   16 1
    33   15   47 1
    34   17   18 2
    35   17   19 1
    36   19   20 1
    37   19   48 1
    38   19   49 1
    39   20   21 1
    40   20   50 1
    41   20   51 1
    42   21   26 1
    43   21   22 1
    44   22   23 1
    45   22   52 1
    46   22   53 1
    47   23   24 1
    48   23   54 1
    49   23   55 1
    50   24   25 1
    51   24   27 1
    52   25   26 1
    53   25   56 1
    54   25   57 1
    55   26   58 1
    56   26   59 1
    57   27   28 2
    58   27   29 2
    59   27   30 1
    60   30   31 1
    61   30   60 1
    62   30   61 1
    63   31   62 1
    64   31   63 1
    65   31   64 1
@<TRIPOS>MOLECULE
CHEMBL160883
   36    38     0     0     0
SMALL
USER_CHARGES

@<TRIPOS>ATOM
      1 C1         -0.9048   -1.2663   -2.4725 C.3       1 <0>        -0.0924
      2 C2         -0.3794   -1.1958   -1.0618 C.2       1 <0>         0.0909
      3 C3         -1.0696   -0.7100    0.0077 C.2       1 <0>        -0.2515
      4 C4         -0.1603   -0.8429    1.1637 C.ar      1 <0>        -0.0947
      5 C5         -0.2592   -0.5357    2.5167 C.ar      1 <0>        -0.0730
      6 C6          0.8056   -0.7931    3.3536 C.ar      1 <0>        -0.1259
      7 C7          1.9691   -1.3546    2.8496 C.ar      1 <0>        -0.0938
      8 C8          2.0778   -1.6630    1.5104 C.ar      1 <0>        -0.1020
      9 C9          1.0149   -1.4113    0.6514 C.ar      1 <0>         0.0513
     10 O1          0.8326   -1.6061   -0.6711 O.3       1 <0>        -0.1811
     11 C10        -2.4352   -0.1662    0.0103 C.2       1 <0>         0.4863
     12 O2         -3.3879   -0.9146    0.1252 O.2       1 <0>        -0.4347
     13 C11        -2.6510    1.2878   -0.1265 C.ar      1 <0>        -0.1856
     14 C12        -1.5685    2.1365   -0.3744 C.ar      1 <0>         0.0004
     15 C13        -1.7740    3.4926   -0.5018 C.ar      1 <0>        -0.1476
     16 C14        -3.0562    4.0174   -0.3842 C.ar      1 <0>         0.2102
     17 C15        -4.1356    3.1765   -0.1371 C.ar      1 <0>        -0.1480
     18 C16        -3.9391    1.8186   -0.0141 C.ar      1 <0>         0.0057
     19 I1         -6.0644    3.9746    0.0402 I         1 <0>        -0.0013
     20 O3         -3.2547    5.3542   -0.5104 O.3       1 <0>        -0.2915
     21 C17        -3.5235    5.8490   -1.8238 C.3       1 <0>         0.0066
     22 C18        -3.7149    7.3427   -1.7684 C.2       1 <0>         0.5091
     23 O4         -3.6291    7.9292   -0.7030 O.co2     1 <0>        -0.6626
     24 O5         -3.9556    7.9647   -2.7890 O.co2     1 <0>        -0.6870
     25 I2         -0.1524    4.7661   -0.8728 I         1 <0>        -0.0025
     26 H1         -0.1200   -1.6319   -3.1347 H         1 <0>         0.0897
     27 H2         -1.7567   -1.9452   -2.5094 H         1 <0>         0.0976
     28 H3         -1.2177   -0.2729   -2.7938 H         1 <0>         0.0976
     29 H4         -1.1649   -0.0977    2.9093 H         1 <0>         0.1282
     30 H5          0.7336   -0.5563    4.4049 H         1 <0>         0.1331
     31 H6          2.7983   -1.5520    3.5128 H         1 <0>         0.1374
     32 H7          2.9889   -2.0998    1.1289 H         1 <0>         0.1342
     33 H8         -0.5722    1.7296   -0.4655 H         1 <0>         0.1415
     34 H9         -4.7786    1.1655    0.1730 H         1 <0>         0.1483
     35 H10        -2.6848    5.6142   -2.4792 H         1 <0>         0.0535
     36 H11        -4.4287    5.3807   -2.2102 H         1 <0>         0.0537
@<TRIPOS>BOND
     1    1    2 1
     2    1   26 1
     3    1   27 1
     4    1   28 1
     5    2   10 1
     6    2    3 2
     7    3    4 1
     8    3   11 1
     9    4    9 ar
    10    4    5 ar
    11    5    6 ar
    12    5   29 1
    13    6    7 ar
    14    6   30 1
    15    7    8 ar
    16    7   31 1
    17    8    9 ar
    18    8   32 1
    19    9   10 1
    20   11   12 2
    21   11   13 1
    22   13   18 ar
    23   13   14 ar
    24   14   15 ar
    25   14   33 1
    26   15   16 ar
    27   15   25 1
    28   16   17 ar
    29   16   20 1
    30   17   18 ar
    31   17   19 1
    32   18   34 1
    33   20   21 1
    34   21   22 1
    35   21   35 1
    36   21   36 1
    37   22   23 2
    38   22   24 1
@<TRIPOS>MOLECULE
CHEMBL107400
   47    48     0     0     0
SMALL
USER_CHARGES

@<TRIPOS>ATOM
      1 C1          0.1621   -2.8710    2.2386 C.3       1 <0>        -0.1168
      2 C2          0.0578   -2.0066    1.0085 C.ar      1 <0>        -0.0391
      3 C3          0.1296   -2.5802   -0.2462 C.ar      1 <0>        -0.1646
      4 C4          0.0336   -1.7838   -1.3781 C.ar      1 <0>         0.1469
      5 C5         -0.1343   -0.4130   -1.2468 C.ar      1 <0>        -0.2204
      6 C6         -0.2055    0.1557    0.0102 C.ar      1 <0>        -0.0368
      7 C7         -0.1152   -0.6408    1.1367 C.ar      1 <0>        -0.1355
      8 C8         -0.1998   -0.0186    2.5067 C.3       1 <0>        -0.0373
      9 C9         -1.6373    0.0081    2.9583 C.ar      1 <0>        -0.0694
     10 C10        -2.4311    1.1033    2.6704 C.ar      1 <0>        -0.1075
     11 C11        -3.7488    1.1304    3.0837 C.ar      1 <0>        -0.1399
     12 C12        -4.2760    0.0573    3.7878 C.ar      1 <0>         0.0944
     13 C13        -3.4779   -1.0402    4.0749 C.ar      1 <0>        -0.0976
     14 C14        -2.1618   -1.0647    3.6548 C.ar      1 <0>        -0.0989
     15 C15        -4.0473   -2.2074    4.8396 C.3       1 <0>        -0.0557
     16 C16        -3.9511   -3.4727    3.9849 C.3       1 <0>        -0.1457
     17 C17        -3.2552   -2.4045    6.1336 C.3       1 <0>        -0.1415
     18 O1         -5.5721    0.0818    4.1959 O.3       1 <0>        -0.4983
     19 C18        -0.3879    1.6447    0.1535 C.3       1 <0>        -0.1184
     20 O2          0.1044   -2.3456   -2.6135 O.3       1 <0>        -0.2815
     21 C19        -0.0020   -1.4649   -3.7338 C.3       1 <0>        -0.0057
     22 C20         0.0975   -2.2607   -5.0097 C.2       1 <0>         0.5009
     23 O3          0.2458   -3.4700   -4.9639 O.co2     1 <0>        -0.6710
     24 O4          0.0297   -1.6952   -6.0877 O.co2     1 <0>        -0.6879
     25 H1         -0.8373   -3.1512    2.5715 H         1 <0>         0.0705
     26 H2          0.7321   -3.7699    2.0037 H         1 <0>         0.0667
     27 H3          0.6668   -2.3172    3.0302 H         1 <0>         0.0685
     28 H4          0.2607   -3.6475   -0.3458 H         1 <0>         0.1278
     29 H5         -0.2090    0.2091   -2.1265 H         1 <0>         0.1264
     30 H6          0.3910   -0.6059    3.2096 H         1 <0>         0.0803
     31 H7          0.1878    0.9994    2.4680 H         1 <0>         0.0802
     32 H8         -2.0202    1.9382    2.1223 H         1 <0>         0.1265
     33 H9         -4.3681    1.9862    2.8592 H         1 <0>         0.1252
     34 H10        -1.5411   -1.9208    3.8746 H         1 <0>         0.1272
     35 H11        -5.0920   -2.0096    5.0796 H         1 <0>         0.0825
     36 H12        -2.9064   -3.6705    3.7448 H         1 <0>         0.0577
     37 H13        -4.3629   -4.3169    4.5379 H         1 <0>         0.0577
     38 H14        -4.5154   -3.3322    3.0630 H         1 <0>         0.0550
     39 H15        -3.3237   -1.5031    6.7425 H         1 <0>         0.0547
     40 H16        -3.6670   -3.2487    6.6866 H         1 <0>         0.0570
     41 H17        -2.2105   -2.6023    5.8936 H         1 <0>         0.0560
     42 H18        -6.1935   -0.2886    3.5542 H         1 <0>         0.3862
     43 H19        -1.4466    1.8705    0.2812 H         1 <0>         0.0709
     44 H20         0.1661    1.9965    1.0239 H         1 <0>         0.0688
     45 H21        -0.0151    2.1442   -0.7407 H         1 <0>         0.0648
     46 H22        -0.9620   -0.9496   -3.7009 H         1 <0>         0.0582
     47 H23         0.8047   -0.7328   -3.6983 H         1 <0>         0.0586
@<TRIPOS>BOND
     1    1    2 1
     2    1   25 1
     3    1   26 1
     4    1   27 1
     5    2    7 ar
     6    2    3 ar
     7    3    4 ar
     8    3   28 1
     9    4    5 ar
    10    4   20 1
    11    5    6 ar
    12    5   29 1
    13    6    7 ar
    14    6   19 1
    15    7    8 1
    16    8    9 1
    17    8   30 1
    18    8   31 1
    19    9   14 ar
    20    9   10 ar
    21   10   11 ar
    22   10   32 1
    23   11   12 ar
    24   11   33 1
    25   12   13 ar
    26   12   18 1
    27   13   14 ar
    28   13   15 1
    29   14   34 1
    30   15   16 1
    31   15   17 1
    32   15   35 1
    33   16   36 1
    34   16   37 1
    35   16   38 1
    36   17   39 1
    37   17   40 1
    38   17   41 1
    39   18   42 1
    40   19   43 1
    41   19   44 1
    42   19   45 1
    43   20   21 1
    44   21   22 1
    45   21   46 1
    46   21   47 1
    47   22   23 2
    48   22   24 1
@<TRIPOS>MOLECULE
CHEMBL330814
   39    42     0     0     0
SMALL
USER_CHARGES

@<TRIPOS>ATOM
      1 C1         -0.0184    1.5028    0.0103 C.3       1 <0>        -0.1033
      2 C2          0.0021   -0.0041    0.0020 C.ar      1 <0>         0.1330
      3 C3          0.0055   -0.6794   -1.2045 C.ar      1 <0>        -0.1668
      4 C4          0.0244   -2.0670   -1.2080 C.ar      1 <0>        -0.0715
      5 C5          0.0391   -2.7306    0.0065 C.ar      1 <0>        -0.1486
      6 C6          0.0346   -1.9865    1.1848 C.ar      1 <0>         0.2059
      7 N1          0.0218   -0.6599    1.1445 N.ar      1 <0>        -0.4560
      8 C7          0.0503   -2.6820    2.4936 C.2       1 <0>         0.1318
      9 C8          0.5276   -2.1488    3.7163 C.2       1 <0>        -0.1559
     10 C9          0.3647   -3.1080    4.6731 C.2       1 <0>         0.0754
     11 N2         -0.1897   -4.1887    4.0897 N.pl3     1 <0>        -0.3820
     12 N3         -0.3813   -3.9009    2.7275 N.2       1 <0>        -0.2528
     13 C10        -0.4019   -5.2658    5.0707 C.3       1 <0>         0.1293
     14 C11         0.4864   -4.9055    6.2806 C.3       1 <0>        -0.1319
     15 C12         0.5920   -3.3695    6.1474 C.3       1 <0>        -0.0671
     16 C13         1.1007   -0.7951    3.9192 C.ar      1 <0>        -0.0079
     17 C14         2.4380   -0.6505    4.2834 C.ar      1 <0>        -0.0932
     18 C15         2.9679    0.6091    4.4714 C.ar      1 <0>        -0.1514
     19 C16         2.1704    1.7319    4.2985 C.ar      1 <0>         0.1020
     20 C17         0.8380    1.5911    3.9358 C.ar      1 <0>        -0.1491
     21 C18         0.3041    0.3343    3.7403 C.ar      1 <0>        -0.0452
     22 O1          2.6950    2.9717    4.4853 O.3       1 <0>        -0.5021
     23 H1          1.0042    1.8801    0.0026 H         1 <0>         0.0782
     24 H2         -0.5455    1.8639   -0.8728 H         1 <0>         0.0757
     25 H3         -0.5286    1.8543    0.9071 H         1 <0>         0.0781
     26 H4         -0.0067   -0.1322   -2.1355 H         1 <0>         0.1370
     27 H5          0.0271   -2.6167   -2.1375 H         1 <0>         0.1389
     28 H6          0.0536   -3.8100    0.0406 H         1 <0>         0.1382
     29 H7         -1.4494   -5.3021    5.3698 H         1 <0>         0.0927
     30 H8         -0.0958   -6.2239    4.6506 H         1 <0>         0.0956
     31 H9          0.0021   -5.1835    7.2167 H         1 <0>         0.1056
     32 H10         1.4676   -5.3726    6.1970 H         1 <0>         0.0897
     33 H11         1.5827   -3.0276    6.4471 H         1 <0>         0.0980
     34 H12        -0.1780   -2.8811    6.7446 H         1 <0>         0.0987
     35 H13         3.0589   -1.5238    4.4188 H         1 <0>         0.1194
     36 H14         4.0042    0.7218    4.7537 H         1 <0>         0.1247
     37 H15         0.2198    2.4665    3.8023 H         1 <0>         0.1251
     38 H16        -0.7315    0.2255    3.4537 H         1 <0>         0.1239
     39 H17         3.0759    3.3619    3.6867 H         1 <0>         0.3881
@<TRIPOS>BOND
     1    1    2 1
     2    1   23 1
     3    1   24 1
     4    1   25 1
     5    2    7 ar
     6    2    3 ar
     7    3    4 ar
     8    3   26 1
     9    4    5 ar
    10    4   27 1
    11    5    6 ar
    12    5   28 1
    13    6    7 ar
    14    6    8 1
    15    8   12 2
    16    8    9 1
    17    9   10 2
    18    9   16 1
    19   10   15 1
    20   10   11 1
    21   11   12 1
    22   11   13 1
    23   13   14 1
    24   13   29 1
    25   13   30 1
    26   14   15 1
    27   14   31 1
    28   14   32 1
    29   15   33 1
    30   15   34 1
    31   16   21 ar
    32   16   17 ar
    33   17   18 ar
    34   17   35 1
    35   18   19 ar
    36   18   36 1
    37   19   20 ar
    38   19   22 1
    39   20   21 ar
    40   20   37 1
    41   21   38 1
    42   22   39 1
@<TRIPOS>MOLECULE
CHEMBL120211
   42    45     0     0     0
SMALL
USER_CHARGES

@<TRIPOS>ATOM
      1 C1         -0.0184    1.5028    0.0103 C.3       1 <0>        -0.1030
      2 C2          0.0021   -0.0041    0.0020 C.ar      1 <0>         0.1331
      3 C3          0.0055   -0.6794   -1.2045 C.ar      1 <0>        -0.1673
      4 C4          0.0244   -2.0670   -1.2080 C.ar      1 <0>        -0.0716
      5 C5          0.0391   -2.7306    0.0065 C.ar      1 <0>        -0.1492
      6 C6          0.0346   -1.9865    1.1848 C.ar      1 <0>         0.2072
      7 N1          0.0218   -0.6599    1.1445 N.ar      1 <0>        -0.4553
      8 C7          0.0503   -2.6820    2.4936 C.2       1 <0>         0.1298
      9 C8          0.5276   -2.1488    3.7163 C.2       1 <0>        -0.1487
     10 C9          0.3647   -3.1080    4.6731 C.2       1 <0>         0.0723
     11 N2         -0.1897   -4.1887    4.0897 N.pl3     1 <0>        -0.3827
     12 N3         -0.3813   -3.9009    2.7275 N.2       1 <0>        -0.2538
     13 C10        -0.4019   -5.2658    5.0707 C.3       1 <0>         0.1296
     14 C11         0.4864   -4.9055    6.2806 C.3       1 <0>        -0.1321
     15 C12         0.5920   -3.3695    6.1474 C.3       1 <0>        -0.0662
     16 C13         1.1007   -0.7951    3.9192 C.ar      1 <0>        -0.0382
     17 C14         2.4380   -0.6505    4.2834 C.ar      1 <0>        -0.0697
     18 C15         2.9679    0.6091    4.4714 C.ar      1 <0>        -0.1583
     19 C16         2.1704    1.7319    4.2985 C.ar      1 <0>         0.1257
     20 C17         0.8380    1.5911    3.9358 C.ar      1 <0>        -0.2115
     21 C18         0.3041    0.3343    3.7403 C.ar      1 <0>        -0.0211
     22 O1          2.6950    2.9717    4.4853 O.3       1 <0>        -0.3204
     23 C19         1.8182    4.0832    4.2907 C.3       1 <0>         0.0282
     24 H1          1.0042    1.8801    0.0026 H         1 <0>         0.0784
     25 H2         -0.5455    1.8639   -0.8728 H         1 <0>         0.0754
     26 H3         -0.5286    1.8543    0.9071 H         1 <0>         0.0768
     27 H4         -0.0067   -0.1322   -2.1355 H         1 <0>         0.1366
     28 H5          0.0271   -2.6167   -2.1375 H         1 <0>         0.1386
     29 H6          0.0536   -3.8100    0.0406 H         1 <0>         0.1380
     30 H7         -1.4494   -5.3021    5.3698 H         1 <0>         0.0920
     31 H8         -0.0958   -6.2239    4.6506 H         1 <0>         0.0950
     32 H9          0.0021   -5.1835    7.2167 H         1 <0>         0.1050
     33 H10         1.4676   -5.3726    6.1970 H         1 <0>         0.0895
     34 H11         1.5827   -3.0276    6.4471 H         1 <0>         0.0978
     35 H12        -0.1780   -2.8811    6.7446 H         1 <0>         0.0977
     36 H13         3.0589   -1.5238    4.4188 H         1 <0>         0.1218
     37 H14         4.0042    0.7218    4.7537 H         1 <0>         0.1268
     38 H15         0.2198    2.4665    3.8023 H         1 <0>         0.1244
     39 H16        -0.7315    0.2255    3.4537 H         1 <0>         0.1216
     40 H17         2.3618    5.0106    4.4710 H         1 <0>         0.0981
     41 H18         1.4429    4.0751    3.2674 H         1 <0>         0.0548
     42 H19         0.9812    4.0117    4.9853 H         1 <0>         0.0545
@<TRIPOS>BOND
     1    1    2 1
     2    1   24 1
     3    1   25 1
     4    1   26 1
     5    2    7 ar
     6    2    3 ar
     7    3    4 ar
     8    3   27 1
     9    4    5 ar
    10    4   28 1
    11    5    6 ar
    12    5   29 1
    13    6    7 ar
    14    6    8 1
    15    8   12 2
    16    8    9 1
    17    9   10 2
    18    9   16 1
    19   10   15 1
    20   10   11 1
    21   11   12 1
    22   11   13 1
    23   13   14 1
    24   13   30 1
    25   13   31 1
    26   14   15 1
    27   14   32 1
    28   14   33 1
    29   15   34 1
    30   15   35 1
    31   16   21 ar
    32   16   17 ar
    33   17   18 ar
    34   17   36 1
    35   18   19 ar
    36   18   37 1
    37   19   20 ar
    38   19   22 1
    39   20   21 ar
    40   20   38 1
    41   21   39 1
    42   22   23 1
    43   23   40 1
    44   23   41 1
    45   23   42 1
@<TRIPOS>MOLECULE
CHEMBL161828
   49    51     0     0     0
SMALL
USER_CHARGES

@<TRIPOS>ATOM
      1 C1         -0.4052    1.4770    0.0173 C.3       1 <0>        -0.1103
      2 C2         -0.1889   -0.0144    0.0041 C.ar      1 <0>        -0.0604
      3 C3         -0.1801   -0.6997   -1.1940 C.ar      1 <0>        -0.1255
      4 C4          0.0197   -2.0747   -1.2059 C.ar      1 <0>         0.1814
      5 C5          0.2105   -2.7586   -0.0115 C.ar      1 <0>        -0.1554
      6 C6          0.2014   -2.0717    1.1857 C.ar      1 <0>        -0.0633
      7 C7          0.0070   -0.6975    1.1963 C.ar      1 <0>         0.0357
      8 O1          0.0033   -0.0210    2.3753 O.3       1 <0>        -0.2454
      9 C8         -1.1825    0.1237    3.0244 C.ar      1 <0>         0.1259
     10 C9         -2.3402   -0.4166    2.4831 C.ar      1 <0>        -0.1773
     11 C10        -3.5446   -0.2700    3.1428 C.ar      1 <0>        -0.1017
     12 C11        -3.5969    0.4176    4.3466 C.ar      1 <0>         0.0717
     13 C12        -2.4399    0.9581    4.8874 C.ar      1 <0>        -0.0697
     14 C13        -1.2341    0.8066    4.2306 C.ar      1 <0>        -0.1335
     15 C14        -2.4971    1.7058    6.1946 C.3       1 <0>        -0.0329
     16 C15        -2.9929    3.1078    5.9501 C.ar      1 <0>        -0.0716
     17 C16        -2.0935    4.1196    5.6700 C.ar      1 <0>        -0.1010
     18 C17        -2.5476    5.4056    5.4457 C.ar      1 <0>        -0.1121
     19 C18        -3.9025    5.6802    5.5015 C.ar      1 <0>        -0.0369
     20 C19        -4.8020    4.6671    5.7818 C.ar      1 <0>        -0.1130
     21 C20        -4.3472    3.3803    6.0004 C.ar      1 <0>        -0.0869
     22 Cl1        -4.4735    7.2953    5.2204 Cl        1 <0>        -0.0758
     23 O2         -4.7828    0.5619    4.9960 O.3       1 <0>        -0.4918
     24 C21         0.4078   -2.8132    2.4813 C.3       1 <0>        -0.1085
     25 N1          0.0284   -2.7697   -2.4187 N.am      1 <0>        -0.6652
     26 C22         0.5077   -2.1782   -3.5309 C.2       1 <0>         0.4523
     27 O3          1.0192   -1.0798   -3.4617 O.2       1 <0>        -0.5210
     28 C23         0.4092   -2.8754   -4.8501 C.2       1 <0>         0.4998
     29 O4          0.8432   -2.3398   -5.8572 O.co2     1 <0>        -0.6364
     30 O5         -0.1051   -3.9799   -4.9197 O.co2     1 <0>        -0.6650
     31 H1          0.5564    1.9842   -0.0615 H         1 <0>         0.0759
     32 H2         -1.0355    1.7602   -0.8257 H         1 <0>         0.0693
     33 H3         -0.8928    1.7652    0.9485 H         1 <0>         0.0644
     34 H4         -0.3288   -0.1675   -2.1219 H         1 <0>         0.1421
     35 H5          0.3656   -3.8274   -0.0198 H         1 <0>         0.1325
     36 H6         -2.2996   -0.9516    1.5458 H         1 <0>         0.1340
     37 H7         -4.4458   -0.6902    2.7213 H         1 <0>         0.1306
     38 H8         -0.3323    1.2234    4.6542 H         1 <0>         0.1342
     39 H9         -3.1763    1.1940    6.8765 H         1 <0>         0.0859
     40 H10        -1.5008    1.7443    6.6350 H         1 <0>         0.0848
     41 H11        -1.0359    3.9052    5.6268 H         1 <0>         0.1308
     42 H12        -1.8449    6.1961    5.2272 H         1 <0>         0.1319
     43 H13        -5.8597    4.8809    5.8258 H         1 <0>         0.1312
     44 H14        -5.0497    2.5885    6.2146 H         1 <0>         0.1386
     45 H15        -4.9784   -0.1499    5.6207 H         1 <0>         0.3819
     46 H16         1.4716   -2.8443    2.7167 H         1 <0>         0.0740
     47 H17        -0.1267   -2.3017    3.2819 H         1 <0>         0.0648
     48 H18         0.0277   -3.8300    2.3825 H         1 <0>         0.0682
     49 H19        -0.3106   -3.6776   -2.4599 H         1 <0>         0.4190
@<TRIPOS>BOND
     1    1    2 1
     2    1   31 1
     3    1   32 1
     4    1   33 1
     5    2    7 ar
     6    2    3 ar
     7    3    4 ar
     8    3   34 1
     9    4    5 ar
    10    4   25 1
    11    5    6 ar
    12    5   35 1
    13    6    7 ar
    14    6   24 1
    15    7    8 1
    16    8    9 1
    17    9   14 ar
    18    9   10 ar
    19   10   11 ar
    20   10   36 1
    21   11   12 ar
    22   11   37 1
    23   12   13 ar
    24   12   23 1
    25   13   14 ar
    26   13   15 1
    27   14   38 1
    28   15   16 1
    29   15   39 1
    30   15   40 1
    31   16   21 ar
    32   16   17 ar
    33   17   18 ar
    34   17   41 1
    35   18   19 ar
    36   18   42 1
    37   19   20 ar
    38   19   22 1
    39   20   21 ar
    40   20   43 1
    41   21   44 1
    42   23   45 1
    43   24   46 1
    44   24   47 1
    45   24   48 1
    46   25   26 am
    47   25   49 1
    48   26   27 2
    49   26   28 1
    50   28   29 2
    51   28   30 1
@<TRIPOS>MOLECULE
CHEMBL198367
   35    37     0     0     0
SMALL
USER_CHARGES

@<TRIPOS>ATOM
      1 C1          0.0222    1.3922   -0.0251 C.ar      1 <0>        -0.0944
      2 C2          1.1823    2.1064   -0.0279 C.ar      1 <0>        -0.1143
      3 C3          2.4199    1.4400   -0.0335 C.ar      1 <0>        -0.0151
      4 C4          2.4506    0.0239   -0.0363 C.ar      1 <0>        -0.0326
      5 C5          3.6844   -0.6428   -0.0428 C.ar      1 <0>        -0.0585
      6 C6          4.8425    0.0721   -0.0465 C.ar      1 <0>        -0.1411
      7 C7          4.8233    1.4697   -0.0437 C.ar      1 <0>         0.1481
      8 C8          3.6298    2.1558   -0.0369 C.ar      1 <0>        -0.1183
      9 Br1         3.6181    4.0467   -0.0339 Br        1 <0>        -0.0351
     10 O1          5.9950    2.1584   -0.0470 O.3       1 <0>        -0.4870
     11 C9          1.2305   -0.6941   -0.0329 C.ar      1 <0>        -0.0125
     12 C10         0.0341    0.0023   -0.0278 C.ar      1 <0>        -0.0912
     13 C11         1.2341   -2.1744   -0.0362 C.ar      1 <0>        -0.0776
     14 C12         1.2349   -2.8769    1.1709 C.ar      1 <0>         0.0119
     15 C13         1.2377   -4.2560    1.1645 C.ar      1 <0>        -0.1450
     16 C14         1.2403   -4.9472   -0.0423 C.ar      1 <0>         0.1965
     17 C15         1.2399   -4.2507   -1.2460 C.ar      1 <0>        -0.1184
     18 C16         1.2308   -2.8715   -1.2463 C.ar      1 <0>         0.0127
     19 Cl1         1.2231   -2.0029   -2.7494 Cl        1 <0>        -0.0498
     20 N1          1.2436   -6.3423   -0.0454 N.am      1 <0>        -0.6614
     21 C17         0.5741   -7.0157   -1.0019 C.2       1 <0>         0.4533
     22 O2          0.0381   -6.4111   -1.9074 O.2       1 <0>        -0.5174
     23 C18         0.4916   -8.5078   -0.9473 C.2       1 <0>         0.5012
     24 O3         -0.1146   -9.1175   -1.8133 O.co2     1 <0>        -0.6328
     25 O4          1.0306   -9.1158   -0.0366 O.co2     1 <0>        -0.6623
     26 Cl2         1.2329   -2.0150    2.6779 Cl        1 <0>        -0.0515
     27 H1         -0.9228    1.9149   -0.0163 H         1 <0>         0.1301
     28 H2          1.1511    3.1859   -0.0261 H         1 <0>         0.1339
     29 H3          3.7155   -1.7224   -0.0446 H         1 <0>         0.1360
     30 H4          5.7892   -0.4475   -0.0511 H         1 <0>         0.1393
     31 H5          6.3306    2.3594   -0.9314 H         1 <0>         0.3942
     32 H6         -0.8999   -0.5401   -0.0251 H         1 <0>         0.1295
     33 H7          1.2384   -4.7998    2.0976 H         1 <0>         0.1464
     34 H8          1.2426   -4.7903   -2.1815 H         1 <0>         0.1600
     35 H9          1.7278   -6.8277    0.6408 H         1 <0>         0.4233
@<TRIPOS>BOND
     1    1   12 ar
     2    1    2 ar
     3    1   27 1
     4    2    3 ar
     5    2   28 1
     6    3    8 ar
     7    3    4 ar
     8    4    5 ar
     9    4   11 ar
    10    5    6 ar
    11    5   29 1
    12    6    7 ar
    13    6   30 1
    14    7    8 ar
    15    7   10 1
    16    8    9 1
    17   10   31 1
    18   11   12 ar
    19   11   13 1
    20   12   32 1
    21   13   18 ar
    22   13   14 ar
    23   14   15 ar
    24   14   26 1
    25   15   16 ar
    26   15   33 1
    27   16   17 ar
    28   16   20 1
    29   17   18 ar
    30   17   34 1
    31   18   19 1
    32   20   21 am
    33   20   35 1
    34   21   22 2
    35   21   23 1
    36   23   24 2
    37   23   25 1
@<TRIPOS>MOLECULE
CHEMBL180819
   57    60     0     0     0
SMALL
USER_CHARGES

@<TRIPOS>ATOM
      1 C1          0.4397   -4.7375    3.1878 C.3       1 <0>        -0.1543
      2 C2          0.2780   -3.8500    1.9521 C.3       1 <0>         0.0566
      3 O1          0.9697   -4.4388    0.8489 O.3       1 <0>        -0.3182
      4 C3          0.9257   -3.7782   -0.3225 C.2       1 <0>         0.4652
      5 O2          0.3180   -2.7321   -0.4063 O.2       1 <0>        -0.4716
      6 C4          1.6253   -4.3330   -1.5192 C.2       1 <0>         0.5354
      7 O3          2.2336   -5.3802   -1.4353 O.2       1 <0>        -0.4588
      8 N1          1.5813   -3.6713   -2.6925 N.am      1 <0>        -0.6399
      9 C5          2.3071   -4.1450   -3.7900 C.ar      1 <0>         0.1418
     10 C6          2.8862   -3.2486   -4.6795 C.ar      1 <0>        -0.0452
     11 C7          3.6029   -3.7169   -5.7623 C.ar      1 <0>        -0.1791
     12 C8          3.7450   -5.0829   -5.9626 C.ar      1 <0>         0.1857
     13 C9          3.1664   -5.9790   -5.0747 C.ar      1 <0>        -0.1785
     14 C10         2.4542   -5.5122   -3.9882 C.ar      1 <0>        -0.0310
     15 C11         3.3209   -7.4620   -5.2934 C.3       1 <0>         0.5160
     16 F1          2.6557   -8.1551   -4.2764 F         1 <0>        -0.1691
     17 F2          2.7713   -7.8105   -6.5319 F         1 <0>        -0.1625
     18 F3          4.6790   -7.7971   -5.2750 F         1 <0>        -0.1633
     19 O4          4.4508   -5.5432   -7.0291 O.3       1 <0>        -0.2515
     20 C12         5.7849   -5.7520   -6.8696 C.ar      1 <0>         0.0824
     21 C13         6.3843   -5.4991   -5.6378 C.ar      1 <0>        -0.1405
     22 C14         7.7336   -5.7051   -5.4593 C.ar      1 <0>        -0.0910
     23 C15         8.5121   -6.1701   -6.5147 C.ar      1 <0>         0.1027
     24 C16         7.9100   -6.4263   -7.7594 C.ar      1 <0>        -0.0686
     25 C17         6.5391   -6.2191   -7.9275 C.ar      1 <0>        -0.0697
     26 C18         8.9826   -6.8964   -8.6429 C.2       1 <0>         0.0293
     27 C19        10.1162   -6.8979   -7.9187 C.2       1 <0>        -0.0120
     28 N2          9.8528   -6.4656   -6.6413 N.pl3     1 <0>        -0.5824
     29 H1         10.5117   -6.3805   -5.9345 H         1 <0>         0.4228
     30 O5          8.8548   -7.2626   -9.9483 O.3       1 <0>        -0.2332
     31 C20         9.9447   -7.7772  -10.5763 C.ar      1 <0>         0.0804
     32 C21        10.4602   -9.0029  -10.1802 C.ar      1 <0>        -0.1149
     33 C22        11.5678   -9.5248  -10.8198 C.ar      1 <0>        -0.1368
     34 C23        12.1639   -8.8252  -11.8553 C.ar      1 <0>         0.0960
     35 C24        11.6509   -7.6016  -12.2515 C.ar      1 <0>        -0.1359
     36 C25        10.5397   -7.0800  -11.6180 C.ar      1 <0>        -0.0925
     37 F4         13.2473   -9.3367  -12.4796 F         1 <0>        -0.1352
     38 C26         4.2308   -2.7447   -6.7275 C.3       1 <0>         0.5171
     39 F5          3.9516   -1.4361   -6.3192 F         1 <0>        -0.1719
     40 F6          5.6158   -2.9403   -6.7516 F         1 <0>        -0.1628
     41 F7          3.7078   -2.9553   -8.0079 F         1 <0>        -0.1615
     42 H2          0.0242   -5.7243    2.9833 H         1 <0>         0.0708
     43 H3          1.4980   -4.8322    3.4312 H         1 <0>         0.0705
     44 H4         -0.0878   -4.2884    4.0293 H         1 <0>         0.0862
     45 H5         -0.7802   -3.7553    1.7087 H         1 <0>         0.0766
     46 H6          0.6935   -2.8632    2.1566 H         1 <0>         0.0763
     47 H7          1.0462   -2.8666   -2.7757 H         1 <0>         0.4329
     48 H8          2.7755   -2.1856   -4.5240 H         1 <0>         0.1658
     49 H9          2.0077   -6.2097   -3.2950 H         1 <0>         0.1740
     50 H10         5.7849   -5.1377   -4.8153 H         1 <0>         0.1278
     51 H11         8.1881   -5.5055   -4.5001 H         1 <0>         0.1329
     52 H12         6.0725   -6.4189   -8.8808 H         1 <0>         0.1404
     53 H13        11.0874   -7.1949   -8.2860 H         1 <0>         0.1727
     54 H14         9.9960   -9.5486   -9.3720 H         1 <0>         0.1414
     55 H15        11.9693  -10.4789  -10.5116 H         1 <0>         0.1428
     56 H16        12.1173   -7.0568  -13.0590 H         1 <0>         0.1451
     57 H17        10.1369   -6.1278  -11.9304 H         1 <0>         0.1445
@<TRIPOS>BOND
     1    1    2 1
     2    1   42 1
     3    1   43 1
     4    1   44 1
     5    2    3 1
     6    2   45 1
     7    2   46 1
     8    3    4 1
     9    4    5 2
    10    4    6 1
    11    6    7 2
    12    6    8 am
    13    8    9 1
    14    8   47 1
    15    9   14 ar
    16    9   10 ar
    17   10   11 ar
    18   10   48 1
    19   11   12 ar
    20   11   38 1
    21   12   13 ar
    22   12   19 1
    23   13   14 ar
    24   13   15 1
    25   14   49 1
    26   15   16 1
    27   15   17 1
    28   15   18 1
    29   19   20 1
    30   20   25 ar
    31   20   21 ar
    32   21   22 ar
    33   21   50 1
    34   22   23 ar
    35   22   51 1
    36   23   28 1
    37   23   24 ar
    38   24   25 ar
    39   24   26 1
    40   25   52 1
    41   26   27 2
    42   26   30 1
    43   27   28 1
    44   27   53 1
    45   28   29 1
    46   30   31 1
    47   31   36 ar
    48   31   32 ar
    49   32   33 ar
    50   32   54 1
    51   33   34 ar
    52   33   55 1
    53   34   35 ar
    54   34   37 1
    55   35   36 ar
    56   35   56 1
    57   36   57 1
    58   38   39 1
    59   38   40 1
    60   38   41 1
@<TRIPOS>MOLECULE
CHEMBL112087
   59    61     0     0     0
SMALL
USER_CHARGES

@<TRIPOS>ATOM
      1 C1          0.1624   -2.8702    2.2377 C.3       1 <0>        -0.1174
      2 C2          0.0579   -2.0055    1.0079 C.ar      1 <0>        -0.0382
      3 C3          0.1295   -2.5788   -0.2469 C.ar      1 <0>        -0.1643
      4 C4          0.0332   -1.7823   -1.3787 C.ar      1 <0>         0.1489
      5 C5         -0.1347   -0.4115   -1.2471 C.ar      1 <0>        -0.2202
      6 C6         -0.2057    0.1570    0.0100 C.ar      1 <0>        -0.0361
      7 C7         -0.1151   -0.6398    1.1364 C.ar      1 <0>        -0.1385
      8 C8         -0.1995   -0.0178    2.5065 C.3       1 <0>        -0.0376
      9 C9         -1.6370    0.0091    2.9582 C.ar      1 <0>        -0.0658
     10 C10        -2.4282    1.1030    2.6699 C.ar      1 <0>        -0.0861
     11 C11        -3.7566    1.1290    3.0869 C.ar      1 <0>        -0.0921
     12 C12        -4.2814    0.0443    3.7965 C.ar      1 <0>         0.1196
     13 C13        -3.4762   -1.0471    4.0790 C.ar      1 <0>        -0.0939
     14 C14        -2.1605   -1.0650    3.6555 C.ar      1 <0>        -0.0855
     15 C15        -4.0370   -2.2186    4.8434 C.3       1 <0>        -0.0555
     16 C16        -3.9357   -3.4822    3.9867 C.3       1 <0>        -0.1468
     17 C17        -3.2405   -2.4130    6.1352 C.3       1 <0>        -0.1424
     18 O1         -5.5760    0.0608    4.2077 O.3       1 <0>        -0.4898
     19 C18        -4.6109    2.3021    2.7802 C.ar      1 <0>         0.0288
     20 C19        -5.8687    2.1208    2.2079 C.ar      1 <0>        -0.1034
     21 C20        -6.6593    3.2160    1.9246 C.ar      1 <0>        -0.0491
     22 C21        -6.2054    4.4917    2.2075 C.ar      1 <0>        -0.0551
     23 C22        -4.9579    4.6775    2.7755 C.ar      1 <0>        -0.0497
     24 C23        -4.1612    3.5893    3.0684 C.ar      1 <0>        -0.1097
     25 N1         -7.0578    5.6624    1.9009 N.pl3     1 <0>         0.0353
     26 O2         -8.1483    5.5027    1.4042 O.2       1 <0>        -0.1604
     27 O3         -6.6633    6.7784    2.1473 O.3       1 <0>        -0.1615
     28 C24        -0.3881    1.6460    0.1537 C.3       1 <0>        -0.1189
     29 O4          0.1038   -2.3438   -2.6143 O.3       1 <0>        -0.2807
     30 C25        -0.0028   -1.4628   -3.7343 C.3       1 <0>        -0.0058
     31 C26         0.0965   -2.2583   -5.0104 C.2       1 <0>         0.5007
     32 O5          0.2448   -3.4677   -4.9649 O.co2     1 <0>        -0.6707
     33 O6          0.0285   -1.6927   -6.0883 O.co2     1 <0>        -0.6869
     34 H1         -0.8369   -3.1506    2.5706 H         1 <0>         0.0701
     35 H2          0.7326   -3.7689    2.0026 H         1 <0>         0.0678
     36 H3          0.6671   -2.3164    3.0294 H         1 <0>         0.0688
     37 H4          0.2606   -3.6462   -0.3468 H         1 <0>         0.1285
     38 H5         -0.2095    0.2108   -2.1266 H         1 <0>         0.1266
     39 H6          0.3912   -0.6054    3.2092 H         1 <0>         0.0834
     40 H7          0.1883    1.0001    2.4679 H         1 <0>         0.0820
     41 H8         -2.0172    1.9379    2.1219 H         1 <0>         0.1316
     42 H9         -1.5372   -1.9196    3.8735 H         1 <0>         0.1323
     43 H10        -5.0822   -2.0271    5.0863 H         1 <0>         0.0846
     44 H11        -2.8905   -3.6736    3.7437 H         1 <0>         0.0585
     45 H12        -4.3413   -4.3295    4.5395 H         1 <0>         0.0598
     46 H13        -4.5032   -3.3436    3.0664 H         1 <0>         0.0557
     47 H14        -2.1953   -2.6045    5.8922 H         1 <0>         0.0568
     48 H15        -3.3126   -1.5128    6.7455 H         1 <0>         0.0554
     49 H16        -3.6461   -3.2603    6.6880 H         1 <0>         0.0589
     50 H17        -6.1970   -0.3122    3.5671 H         1 <0>         0.3866
     51 H18        -6.2239    1.1253    1.9863 H         1 <0>         0.1424
     52 H19        -7.6340    3.0768    1.4808 H         1 <0>         0.1548
     53 H20        -4.6086    5.6757    2.9943 H         1 <0>         0.1549
     54 H21        -3.1892    3.7352    3.5159 H         1 <0>         0.1485
     55 H22        -1.4468    1.8717    0.2814 H         1 <0>         0.0686
     56 H23         0.1660    1.9976    1.0241 H         1 <0>         0.0691
     57 H24        -0.0153    2.1457   -0.7404 H         1 <0>         0.0661
     58 H25        -0.9628   -0.9475   -3.7012 H         1 <0>         0.0582
     59 H26         0.8039   -0.7307   -3.6988 H         1 <0>         0.0589
@<TRIPOS>BOND
     1    1    2 1
     2    1   34 1
     3    1   35 1
     4    1   36 1
     5    2    7 ar
     6    2    3 ar
     7    3    4 ar
     8    3   37 1
     9    4    5 ar
    10    4   29 1
    11    5    6 ar
    12    5   38 1
    13    6    7 ar
    14    6   28 1
    15    7    8 1
    16    8    9 1
    17    8   39 1
    18    8   40 1
    19    9   14 ar
    20    9   10 ar
    21   10   11 ar
    22   10   41 1
    23   11   12 ar
    24   11   19 1
    25   12   13 ar
    26   12   18 1
    27   13   14 ar
    28   13   15 1
    29   14   42 1
    30   15   16 1
    31   15   17 1
    32   15   43 1
    33   16   44 1
    34   16   45 1
    35   16   46 1
    36   17   47 1
    37   17   48 1
    38   17   49 1
    39   18   50 1
    40   19   24 ar
    41   19   20 ar
    42   20   21 ar
    43   20   51 1
    44   21   22 ar
    45   21   52 1
    46   22   23 ar
    47   22   25 1
    48   23   24 ar
    49   23   53 1
    50   24   54 1
    51   25   26 2
    52   25   27 1
    53   28   55 1
    54   28   56 1
    55   28   57 1
    56   29   30 1
    57   30   31 1
    58   30   58 1
    59   30   59 1
    60   31   32 2
    61   31   33 1
@<TRIPOS>MOLECULE
CHEMBL159334
   42    44     0     0     0
SMALL
USER_CHARGES

@<TRIPOS>ATOM
      1 C1         -1.6624    1.3637    1.3031 C.ar      1 <0>        -0.0310
      2 C2         -2.0514    2.0269    2.4468 C.ar      1 <0>        -0.1696
      3 C3         -2.4215    1.3103    3.5750 C.ar      1 <0>         0.1327
      4 C4         -2.4027   -0.0763    3.5594 C.ar      1 <0>        -0.1670
      5 C5         -2.0155   -0.7500    2.4213 C.ar      1 <0>        -0.0230
      6 C6         -1.6419   -0.0333    1.2814 C.ar      1 <0>        -0.1725
      7 C7         -1.2266   -0.7495    0.0587 C.2       1 <0>         0.4601
      8 O1         -0.9879   -0.1277   -0.9588 O.2       1 <0>        -0.4373
      9 C8         -1.1012   -2.2186    0.0715 C.ar      1 <0>        -0.1409
     10 C9          0.1621   -2.8156    0.1156 C.ar      1 <0>        -0.0940
     11 C10         0.2716   -4.1935    0.1278 C.ar      1 <0>         0.1247
     12 C11        -0.8704   -4.9861    0.0959 C.ar      1 <0>        -0.1547
     13 C12        -2.1216   -4.4050    0.0524 C.ar      1 <0>        -0.0999
     14 C13        -2.2486   -3.0241    0.0454 C.ar      1 <0>         0.1020
     15 O2         -3.4796   -2.4541    0.0082 O.3       1 <0>        -0.4900
     16 O3          1.4996   -4.7755    0.1706 O.3       1 <0>        -0.2327
     17 C14         1.5622   -6.1337    0.1812 C.ar      1 <0>         0.0546
     18 C15         1.5501   -6.8196    1.3884 C.ar      1 <0>        -0.0083
     19 C16         1.6133   -8.1996    1.3997 C.ar      1 <0>        -0.1091
     20 C17         1.6890   -8.9012    0.2028 C.ar      1 <0>         0.1984
     21 C18         1.7011   -8.2144   -1.0050 C.ar      1 <0>        -0.1358
     22 C19         1.6325   -6.8346   -1.0154 C.ar      1 <0>        -0.0089
     23 Cl1         1.6410   -5.9766   -2.5245 Cl        1 <0>        -0.0397
     24 N1          1.7534  -10.2975    0.2137 N.am      1 <0>        -0.6604
     25 C20         1.0776  -10.9960    1.1474 C.2       1 <0>         0.4538
     26 O4          0.4821  -10.4121    2.0291 O.2       1 <0>        -0.5168
     27 C21         1.0615  -12.4903    1.0970 C.2       1 <0>         0.5015
     28 O5          0.4495  -13.1228    1.9425 O.co2     1 <0>        -0.6315
     29 O6          1.6603  -13.0775    0.2104 O.co2     1 <0>        -0.6611
     30 Cl2         1.4561   -5.9429    2.8838 Cl        1 <0>        -0.0379
     31 F1         -2.8015    1.9656    4.6937 F         1 <0>        -0.1336
     32 H1         -1.3783    1.9227    0.4237 H         1 <0>         0.1445
     33 H2         -2.0676    3.1066    2.4646 H         1 <0>         0.1428
     34 H3         -2.6916   -0.6292    4.4410 H         1 <0>         0.1435
     35 H4         -2.0005   -1.8298    2.4105 H         1 <0>         0.1422
     36 H5          1.0504   -2.2018    0.1396 H         1 <0>         0.1421
     37 H6         -0.7778   -6.0620    0.1050 H         1 <0>         0.1363
     38 H7         -3.0040   -5.0273    0.0278 H         1 <0>         0.1415
     39 H8         -3.8124   -2.2945   -0.8856 H         1 <0>         0.3915
     40 H9          1.6042   -8.7331    2.3387 H         1 <0>         0.1657
     41 H10         1.7603   -8.7592   -1.9356 H         1 <0>         0.1526
     42 H11         2.2845  -10.7637   -0.4508 H         1 <0>         0.4250
@<TRIPOS>BOND
     1    1    6 ar
     2    1    2 ar
     3    1   32 1
     4    2    3 ar
     5    2   33 1
     6    3    4 ar
     7    3   31 1
     8    4    5 ar
     9    4   34 1
    10    5    6 ar
    11    5   35 1
    12    6    7 1
    13    7    8 2
    14    7    9 1
    15    9   14 ar
    16    9   10 ar
    17   10   11 ar
    18   10   36 1
    19   11   12 ar
    20   11   16 1
    21   12   13 ar
    22   12   37 1
    23   13   14 ar
    24   13   38 1
    25   14   15 1
    26   15   39 1
    27   16   17 1
    28   17   22 ar
    29   17   18 ar
    30   18   19 ar
    31   18   30 1
    32   19   20 ar
    33   19   40 1
    34   20   21 ar
    35   20   24 1
    36   21   22 ar
    37   21   41 1
    38   22   23 1
    39   24   25 am
    40   24   42 1
    41   25   26 2
    42   25   27 1
    43   27   28 2
    44   27   29 1
@<TRIPOS>MOLECULE
CHEMBL236290
   55    57     0     0     0
SMALL
USER_CHARGES

@<TRIPOS>ATOM
      1 C1         -0.0187    1.5258    0.0104 C.3       1 <0>        -0.1432
      2 C2          0.0021   -0.0041    0.0020 C.3       1 <0>        -0.0542
      3 C3          0.7421   -0.5109    1.2415 C.3       1 <0>        -0.1446
      4 C4         -1.4117   -0.5257    0.0127 C.ar      1 <0>        -0.0663
      5 C5         -2.2586   -0.2044    1.0558 C.ar      1 <0>        -0.1220
      6 C6         -3.5600   -0.6842    1.0654 C.ar      1 <0>         0.1244
      7 C7         -4.0111   -1.4867    0.0273 C.ar      1 <0>        -0.1732
      8 C8         -3.1643   -1.8077   -1.0153 C.ar      1 <0>        -0.0975
      9 C9         -1.8644   -1.3235   -1.0275 C.ar      1 <0>         0.0734
     10 O1         -1.0323   -1.6354   -2.0567 O.3       1 <0>        -0.4924
     11 O2         -4.3934   -0.3684    2.0921 O.3       1 <0>        -0.2425
     12 C10        -5.6599   -0.8604    2.0603 C.ar      1 <0>         0.1293
     13 C11        -6.6714   -0.1378    1.4426 C.ar      1 <0>        -0.0932
     14 C12        -7.9586   -0.6407    1.4119 C.ar      1 <0>        -0.0478
     15 C13        -8.2391   -1.8623    1.9955 C.ar      1 <0>        -0.0387
     16 C14        -7.2337   -2.5842    2.6119 C.ar      1 <0>        -0.0521
     17 C15        -5.9434   -2.0892    2.6404 C.ar      1 <0>        -0.0948
     18 Br1        -4.5673   -3.0815    3.4756 Br        1 <0>        -0.0232
     19 C16        -9.6434   -2.4078    1.9603 C.3       1 <0>        -0.1050
     20 C17        -9.8271   -3.2424    0.7190 C.2       1 <0>         0.5109
     21 O3         -8.9082   -3.3806   -0.0603 O.2       1 <0>        -0.5358
     22 N1        -11.0126   -3.8352    0.4749 N.am      1 <0>        -0.6931
     23 C18       -11.1912   -4.6465   -0.7318 C.3       1 <0>         0.1102
     24 H1        -10.2614   -5.1675   -0.9603 H         1 <0>         0.0915
     25 C19       -12.2881   -5.6541   -0.5019 C.ar      1 <0>        -0.0565
     26 C20       -13.4295   -5.2882    0.1867 C.ar      1 <0>        -0.1119
     27 C21       -14.4356   -6.2123    0.3976 C.ar      1 <0>        -0.1210
     28 C22       -14.3006   -7.5023   -0.0806 C.ar      1 <0>        -0.1344
     29 C23       -13.1596   -7.8679   -0.7701 C.ar      1 <0>        -0.1208
     30 C24       -12.1553   -6.9426   -0.9847 C.ar      1 <0>        -0.1082
     31 C25       -11.5636   -3.7534   -1.8871 C.2       1 <0>         0.5006
     32 O4        -11.2414   -4.0592   -3.0225 O.co2     1 <0>        -0.6847
     33 O5        -12.1869   -2.7250   -1.6863 O.co2     1 <0>        -0.6833
     34 Br2        -6.2889    1.5334    0.6446 Br        1 <0>        -0.0190
     35 H2          1.0039    1.9031    0.0027 H         1 <0>         0.0578
     36 H3         -0.5459    1.8868   -0.8726 H         1 <0>         0.0571
     37 H4         -0.5289    1.8773    0.9072 H         1 <0>         0.0572
     38 H5          0.5123   -0.3556   -0.8948 H         1 <0>         0.0868
     39 H6          0.7568   -1.6008    1.2356 H         1 <0>         0.0545
     40 H7          1.7647   -0.1336    1.2338 H         1 <0>         0.0582
     41 H8          0.2319   -0.1594    2.1383 H         1 <0>         0.0579
     42 H9         -1.9072    0.4200    1.8639 H         1 <0>         0.1348
     43 H10        -5.0243   -1.8606    0.0348 H         1 <0>         0.1307
     44 H11        -3.5154   -2.4324   -1.8233 H         1 <0>         0.1341
     45 H12        -0.5229   -2.4458   -1.9190 H         1 <0>         0.3840
     46 H13        -8.7460   -0.0787    0.9318 H         1 <0>         0.1493
     47 H14        -7.4559   -3.5380    3.0673 H         1 <0>         0.1462
     48 H15        -9.8157   -3.0251    2.8419 H         1 <0>         0.1081
     49 H16       -10.3541   -1.5814    1.9509 H         1 <0>         0.1119
     50 H17       -11.7476   -3.7247    1.0981 H         1 <0>         0.3937
     51 H18       -13.5350   -4.2803    0.5604 H         1 <0>         0.1220
     52 H19       -15.3270   -5.9266    0.9363 H         1 <0>         0.1182
     53 H20       -15.0864   -8.2245    0.0847 H         1 <0>         0.1160
     54 H21       -13.0540   -8.8758   -1.1434 H         1 <0>         0.1185
     55 H22       -11.2655   -7.2272   -1.5266 H         1 <0>         0.1224
@<TRIPOS>BOND
     1    1    2 1
     2    1   35 1
     3    1   36 1
     4    1   37 1
     5    2    3 1
     6    2    4 1
     7    2   38 1
     8    3   39 1
     9    3   40 1
    10    3   41 1
    11    4    9 ar
    12    4    5 ar
    13    5    6 ar
    14    5   42 1
    15    6    7 ar
    16    6   11 1
    17    7    8 ar
    18    7   43 1
    19    8    9 ar
    20    8   44 1
    21    9   10 1
    22   10   45 1
    23   11   12 1
    24   12   17 ar
    25   12   13 ar
    26   13   14 ar
    27   13   34 1
    28   14   15 ar
    29   14   46 1
    30   15   16 ar
    31   15   19 1
    32   16   17 ar
    33   16   47 1
    34   17   18 1
    35   19   20 1
    36   19   48 1
    37   19   49 1
    38   20   21 2
    39   20   22 am
    40   22   23 1
    41   22   50 1
    42   23   24 1
    43   23   25 1
    44   23   31 1
    45   25   30 ar
    46   25   26 ar
    47   26   27 ar
    48   26   51 1
    49   27   28 ar
    50   27   52 1
    51   28   29 ar
    52   28   53 1
    53   29   30 ar
    54   29   54 1
    55   30   55 1
    56   31   32 2
    57   31   33 1
@<TRIPOS>MOLECULE
CHEMBL127338
   56    59     0     0     0
SMALL
USER_CHARGES

@<TRIPOS>ATOM
      1 C1         -1.0238    1.3049    0.1204 C.3       1 <0>        -0.1155
      2 C2         -0.4801   -0.0990    0.0549 C.ar      1 <0>        -0.0606
      3 C3         -0.4765   -0.7824   -1.1450 C.ar      1 <0>        -0.0873
      4 C4          0.0245   -2.0763   -1.2059 C.ar      1 <0>         0.1779
      5 C5          0.5221   -2.6827   -0.0593 C.ar      1 <0>        -0.0841
      6 C6          0.5182   -1.9984    1.1403 C.ar      1 <0>        -0.0279
      7 C7          0.0219   -0.7022    1.1988 C.ar      1 <0>         0.0903
      8 O1          0.0236   -0.0266    2.3783 O.3       1 <0>        -0.2381
      9 C8         -1.0667   -0.1432    3.1822 C.ar      1 <0>         0.0965
     10 C9         -2.1346   -0.9384    2.7919 C.ar      1 <0>        -0.1215
     11 C10        -3.2420   -1.0567    3.6085 C.ar      1 <0>        -0.1216
     12 C11        -3.2867   -0.3805    4.8190 C.ar      1 <0>         0.1803
     13 C12        -2.2195    0.4147    5.2090 C.ar      1 <0>        -0.6722
     14 C13        -1.1091    0.5283    4.3952 C.ar      1 <0>        -0.0289
     15 S1         -2.2767    1.2740    6.7462 S.o2      1 <0>         2.6999
     16 O2         -2.6727    0.3253    7.7273 O.2       1 <0>        -0.9485
     17 O3         -1.0661    2.0114    6.8446 O.2       1 <0>        -0.9506
     18 N1         -3.5003    2.3848    6.6410 N.pl3     1 <0>        -0.9906
     19 C14        -3.2451    3.7439    6.1400 C.3       1 <0>         0.1241
     20 C15        -4.2633    4.0557    5.0381 C.3       1 <0>         0.0405
     21 N2         -5.6207    3.8276    5.5513 N.3       1 <0>        -0.5416
     22 C16        -5.8254    2.4175    5.9085 C.3       1 <0>         0.0429
     23 C17        -4.8724    2.0367    7.0404 C.3       1 <0>         0.1297
     24 C18        -6.6314    4.2779    4.5850 C.3       1 <0>         0.0254
     25 O4         -4.3771   -0.4970    5.6229 O.3       1 <0>        -0.4961
     26 Cl1         1.1392   -2.7557    2.5737 Cl        1 <0>        -0.0296
     27 N3          0.0278   -2.7696   -2.4226 N.am      1 <0>        -0.4031
     28 C19        -0.4549   -4.0239   -2.4730 C.2       1 <0>         0.6829
     29 O5         -0.8880   -4.5399   -1.4608 O.2       1 <0>        -0.5130
     30 N4         -0.4661   -4.7166   -3.6273 N.am      1 <0>        -0.6540
     31 H1         -0.8182   -5.6202   -3.6469 H         1 <0>         0.4393
     32 C20         0.0118   -4.1547   -4.7569 C.2       1 <0>         0.5166
     33 O6          0.0045   -4.7748   -5.8043 O.2       1 <0>        -0.4675
     34 C21         0.5391   -2.7887   -4.7073 C.2       1 <0>         0.0652
     35 N5          0.5281   -2.1459   -3.5718 N.2       1 <0>        -0.1664
     36 H2         -0.2210    2.0151   -0.0776 H         1 <0>         0.0886
     37 H3         -1.8084    1.4259   -0.6265 H         1 <0>         0.0780
     38 H4         -1.4354    1.4892    1.1127 H         1 <0>         0.0732
     39 H5         -0.8637   -0.3109   -2.0361 H         1 <0>         0.1493
     40 H6          0.9116   -3.6889   -0.1059 H         1 <0>         0.1505
     41 H7         -2.1000   -1.4645    1.8493 H         1 <0>         0.1377
     42 H8         -4.0734   -1.6753    3.3045 H         1 <0>         0.1440
     43 H9         -0.2758    1.1435    4.7013 H         1 <0>         0.1592
     44 H10        -3.3551    4.4608    6.9537 H         1 <0>         0.0867
     45 H11        -2.2357    3.8003    5.7325 H         1 <0>         0.0937
     46 H12        -4.1604    5.0967    4.7318 H         1 <0>         0.0885
     47 H13        -4.0838    3.4049    4.1823 H         1 <0>         0.0378
     48 H14        -6.8554    2.2704    6.2335 H         1 <0>         0.0863
     49 H15        -5.6242    1.7895    5.0406 H         1 <0>         0.0447
     50 H16        -4.9384    0.9649    7.2278 H         1 <0>         0.1019
     51 H17        -5.1419    2.5863    7.9423 H         1 <0>         0.0799
     52 H18        -6.5132    3.7267    3.6521 H         1 <0>         0.0244
     53 H19        -7.6271    4.0975    4.9900 H         1 <0>         0.0702
     54 H20        -6.5038    5.3438    4.3959 H         1 <0>         0.0700
     55 H21        -4.3223   -1.2251    6.2570 H         1 <0>         0.4091
     56 H22         0.9268   -2.3187   -5.5990 H         1 <0>         0.2331
@<TRIPOS>BOND
     1    1    2 1
     2    1   36 1
     3    1   37 1
     4    1   38 1
     5    2    7 ar
     6    2    3 ar
     7    3    4 ar
     8    3   39 1
     9    4    5 ar
    10    4   27 1
    11    5    6 ar
    12    5   40 1
    13    6    7 ar
    14    6   26 1
    15    7    8 1
    16    8    9 1
    17    9   14 ar
    18    9   10 ar
    19   10   11 ar
    20   10   41 1
    21   11   12 ar
    22   11   42 1
    23   12   13 ar
    24   12   25 1
    25   13   14 ar
    26   13   15 1
    27   14   43 1
    28   15   16 2
    29   15   17 2
    30   15   18 1
    31   18   23 1
    32   18   19 1
    33   19   20 1
    34   19   44 1
    35   19   45 1
    36   20   21 1
    37   20   46 1
    38   20   47 1
    39   21   22 1
    40   21   24 1
    41   22   23 1
    42   22   48 1
    43   22   49 1
    44   23   50 1
    45   23   51 1
    46   24   52 1
    47   24   53 1
    48   24   54 1
    49   25   55 1
    50   27   35 1
    51   27   28 am
    52   28   29 2
    53   28   30 am
    54   30   31 1
    55   30   32 am
    56   32   33 2
    57   32   34 1
    58   34   35 2
    59   34   56 1
@<TRIPOS>MOLECULE
CHEMBL127338__1
   55    58     0     0     0
SMALL
USER_CHARGES

@<TRIPOS>ATOM
      1 C1         -1.0238    1.3049    0.1204 C.3       1 <0>        -0.1118
      2 C2         -0.4801   -0.0990    0.0549 C.ar      1 <0>        -0.0731
      3 C3         -0.4765   -0.7824   -1.1450 C.ar      1 <0>        -0.0867
      4 C4          0.0245   -2.0763   -1.2059 C.ar      1 <0>         0.1508
      5 C5          0.5221   -2.6827   -0.0593 C.ar      1 <0>        -0.0839
      6 C6          0.5182   -1.9984    1.1403 C.ar      1 <0>        -0.0367
      7 C7          0.0219   -0.7022    1.1988 C.ar      1 <0>         0.1314
      8 O1          0.0236   -0.0266    2.3783 O.3       1 <0>        -0.2578
      9 C8         -1.0667   -0.1432    3.1822 C.ar      1 <0>        -0.0397
     10 C9         -2.1346   -0.9384    2.7919 C.ar      1 <0>        -0.0906
     11 C10        -3.2420   -1.0567    3.6085 C.ar      1 <0>        -0.2220
     12 C11        -3.2867   -0.3805    4.8190 C.ar      1 <0>         0.3332
     13 C12        -2.2195    0.4147    5.2090 C.ar      1 <0>        -0.7962
     14 C13        -1.1091    0.5283    4.3952 C.ar      1 <0>         0.0109
     15 S1         -2.2767    1.2740    6.7462 S.o2      1 <0>         2.7142
     16 O2         -2.6727    0.3253    7.7273 O.2       1 <0>        -0.9615
     17 O3         -1.0661    2.0114    6.8446 O.2       1 <0>        -0.9961
     18 N1         -3.5003    2.3848    6.6410 N.pl3     1 <0>        -0.9950
     19 C14        -3.2451    3.7439    6.1400 C.3       1 <0>         0.1300
     20 C15        -4.2633    4.0557    5.0381 C.3       1 <0>         0.0421
     21 N2         -5.6207    3.8276    5.5513 N.3       1 <0>        -0.5438
     22 C16        -5.8254    2.4175    5.9085 C.3       1 <0>         0.0468
     23 C17        -4.8724    2.0367    7.0404 C.3       1 <0>         0.1355
     24 C18        -6.6314    4.2779    4.5850 C.3       1 <0>         0.0273
     25 O4         -4.3771   -0.4970    5.6229 O.3       1 <0>        -0.6870
     26 Cl1         1.1392   -2.7557    2.5737 Cl        1 <0>        -0.0344
     27 N3          0.0278   -2.7696   -2.4226 N.am      1 <0>        -0.3939
     28 C19        -0.4549   -4.0239   -2.4730 C.2       1 <0>         0.6784
     29 O5         -0.8880   -4.5399   -1.4608 O.2       1 <0>        -0.5077
     30 N4         -0.4661   -4.7166   -3.6273 N.am      1 <0>        -0.6544
     31 H1         -0.8182   -5.6202   -3.6469 H         1 <0>         0.4369
     32 C20         0.0118   -4.1547   -4.7569 C.2       1 <0>         0.5193
     33 O6          0.0045   -4.7748   -5.8043 O.2       1 <0>        -0.4793
     34 C21         0.5391   -2.7887   -4.7073 C.2       1 <0>         0.0500
     35 N5          0.5281   -2.1459   -3.5718 N.2       1 <0>        -0.1601
     36 H2         -0.2210    2.0151   -0.0776 H         1 <0>         0.0797
     37 H3         -1.8084    1.4259   -0.6265 H         1 <0>         0.0698
     38 H4         -1.4354    1.4892    1.1127 H         1 <0>         0.0824
     39 H5         -0.8637   -0.3109   -2.0361 H         1 <0>         0.1413
     40 H6          0.9116   -3.6889   -0.1059 H         1 <0>         0.1426
     41 H7         -2.1000   -1.4645    1.8493 H         1 <0>         0.1010
     42 H8         -4.0734   -1.6753    3.3045 H         1 <0>         0.1071
     43 H9         -0.2758    1.1435    4.7013 H         1 <0>         0.1229
     44 H10        -3.3551    4.4608    6.9537 H         1 <0>         0.0711
     45 H11        -2.2357    3.8003    5.7325 H         1 <0>         0.0873
     46 H12        -4.1604    5.0967    4.7318 H         1 <0>         0.0778
     47 H13        -4.0838    3.4049    4.1823 H         1 <0>         0.0399
     48 H14        -6.8554    2.2704    6.2335 H         1 <0>         0.0756
     49 H15        -5.6242    1.7895    5.0406 H         1 <0>         0.0518
     50 H16        -4.9384    0.9649    7.2278 H         1 <0>         0.1172
     51 H17        -5.1419    2.5863    7.9423 H         1 <0>         0.0580
     52 H18        -6.5132    3.7267    3.6521 H         1 <0>         0.0223
     53 H19        -7.6271    4.0975    4.9900 H         1 <0>         0.0647
     54 H20        -6.5038    5.3438    4.3959 H         1 <0>         0.0631
     55 H21         0.9268   -2.3187   -5.5990 H         1 <0>         0.2293
@<TRIPOS>BOND
     1    1    2 1
     2    1   36 1
     3    1   37 1
     4    1   38 1
     5    2    7 ar
     6    2    3 ar
     7    3    4 ar
     8    3   39 1
     9    4    5 ar
    10    4   27 1
    11    5    6 ar
    12    5   40 1
    13    6    7 ar
    14    6   26 1
    15    7    8 1
    16    8    9 1
    17    9   14 ar
    18    9   10 ar
    19   10   11 ar
    20   10   41 1
    21   11   12 ar
    22   11   42 1
    23   12   13 ar
    24   12   25 1
    25   13   14 ar
    26   13   15 1
    27   14   43 1
    28   15   16 2
    29   15   17 2
    30   15   18 1
    31   18   23 1
    32   18   19 1
    33   19   20 1
    34   19   44 1
    35   19   45 1
    36   20   21 1
    37   20   46 1
    38   20   47 1
    39   21   22 1
    40   21   24 1
    41   22   23 1
    42   22   48 1
    43   22   49 1
    44   23   50 1
    45   23   51 1
    46   24   52 1
    47   24   53 1
    48   24   54 1
    49   27   35 1
    50   27   28 am
    51   28   29 2
    52   28   30 am
    53   30   31 1
    54   30   32 am
    55   32   33 2
    56   32   34 1
    57   34   35 2
    58   34   55 1
@<TRIPOS>MOLECULE
CHEMBL127338__2
   57    60     0     0     0
SMALL
USER_CHARGES

@<TRIPOS>ATOM
      1 C1         -1.0238    1.3049    0.1204 C.3       1 <0>        -0.1127
      2 C2         -0.4801   -0.0990    0.0549 C.ar      1 <0>        -0.0615
      3 C3         -0.4765   -0.7824   -1.1450 C.ar      1 <0>        -0.0882
      4 C4          0.0245   -2.0763   -1.2059 C.ar      1 <0>         0.1871
      5 C5          0.5221   -2.6827   -0.0593 C.ar      1 <0>        -0.0832
      6 C6          0.5182   -1.9984    1.1403 C.ar      1 <0>        -0.0263
      7 C7          0.0219   -0.7022    1.1988 C.ar      1 <0>         0.0806
      8 O1          0.0236   -0.0266    2.3783 O.3       1 <0>        -0.2343
      9 C8         -1.0667   -0.1432    3.1822 C.ar      1 <0>         0.1066
     10 C9         -2.1346   -0.9384    2.7919 C.ar      1 <0>        -0.1167
     11 C10        -3.2420   -1.0567    3.6085 C.ar      1 <0>        -0.1158
     12 C11        -3.2867   -0.3805    4.8190 C.ar      1 <0>         0.1683
     13 C12        -2.2195    0.4147    5.2090 C.ar      1 <0>        -0.6766
     14 C13        -1.1091    0.5283    4.3952 C.ar      1 <0>        -0.0316
     15 S1         -2.2767    1.2740    6.7462 S.o2      1 <0>         2.7004
     16 O2         -2.6727    0.3253    7.7273 O.2       1 <0>        -0.9313
     17 O3         -1.0661    2.0114    6.8446 O.2       1 <0>        -0.9335
     18 N1         -3.5003    2.3848    6.6410 N.pl3     1 <0>        -1.0062
     19 C14        -3.2466    3.7445    6.1400 C.3       1 <0>         0.0954
     20 C15        -4.2776    4.0615    5.0518 C.3       1 <0>        -0.0224
     21 N2         -5.6300    3.8546    5.5850 N.4       1 <0>        -0.3840
     22 C16        -5.8263    2.4372    5.9144 C.3       1 <0>        -0.0204
     23 C17        -4.8732    2.0380    7.0401 C.3       1 <0>         0.0994
     24 C18        -6.6190    4.2632    4.5786 C.3       1 <0>        -0.0468
     25 O4         -4.3771   -0.4970    5.6229 O.3       1 <0>        -0.5089
     26 Cl1         1.1392   -2.7557    2.5737 Cl        1 <0>        -0.0276
     27 N3          0.0278   -2.7696   -2.4226 N.am      1 <0>        -0.4068
     28 C19        -0.4549   -4.0239   -2.4730 C.2       1 <0>         0.6845
     29 O5         -0.8880   -4.5399   -1.4608 O.2       1 <0>        -0.5153
     30 N4         -0.4661   -4.7166   -3.6273 N.am      1 <0>        -0.6539
     31 H1         -0.8182   -5.6202   -3.6469 H         1 <0>         0.4404
     32 C20         0.0118   -4.1547   -4.7569 C.2       1 <0>         0.5149
     33 O6          0.0045   -4.7748   -5.8043 O.2       1 <0>        -0.4615
     34 C21         0.5391   -2.7887   -4.7073 C.2       1 <0>         0.0722
     35 N5          0.5281   -2.1459   -3.5718 N.2       1 <0>        -0.1702
     36 H2         -0.2210    2.0151   -0.0776 H         1 <0>         0.0893
     37 H3         -1.8084    1.4259   -0.6265 H         1 <0>         0.0784
     38 H4         -1.4354    1.4892    1.1127 H         1 <0>         0.0680
     39 H5         -0.8637   -0.3109   -2.0361 H         1 <0>         0.1509
     40 H6          0.9116   -3.6889   -0.1059 H         1 <0>         0.1529
     41 H7         -2.1000   -1.4645    1.8493 H         1 <0>         0.1427
     42 H8         -4.0734   -1.6753    3.3045 H         1 <0>         0.1471
     43 H9         -0.2758    1.1435    4.7013 H         1 <0>         0.1618
     44 H10        -3.3442    4.4599    6.9566 H         1 <0>         0.1062
     45 H11        -2.2422    3.7985    5.7200 H         1 <0>         0.1353
     46 H12        -4.1660    5.0989    4.7365 H         1 <0>         0.1458
     47 H13        -4.1189    3.4029    4.1979 H         1 <0>         0.1330
     48 H14        -6.8559    2.2778    6.2347 H         1 <0>         0.1446
     49 H15        -5.6208    1.8278    5.0344 H         1 <0>         0.1375
     50 H16        -4.9437    0.9644    7.2148 H         1 <0>         0.1421
     51 H17        -5.1378    2.5782    7.9491 H         1 <0>         0.1007
     52 H18        -6.4879    3.6652    3.6767 H         1 <0>         0.1211
     53 H19        -7.6235    4.1101    4.9732 H         1 <0>         0.1260
     54 H20        -6.4795    5.3174    4.3390 H         1 <0>         0.1256
     55 H21        -4.3223   -1.2251    6.2570 H         1 <0>         0.4159
     56 H22         0.9268   -2.3187   -5.5990 H         1 <0>         0.2348
     57 H23        -5.7509    4.4120    6.4174 H         1 <0>         0.4263
@<TRIPOS>BOND
     1    1    2 1
     2    1   36 1
     3    1   37 1
     4    1   38 1
     5    2    7 ar
     6    2    3 ar
     7    3    4 ar
     8    3   39 1
     9    4    5 ar
    10    4   27 1
    11    5    6 ar
    12    5   40 1
    13    6    7 ar
    14    6   26 1
    15    7    8 1
    16    8    9 1
    17    9   14 ar
    18    9   10 ar
    19   10   11 ar
    20   10   41 1
    21   11   12 ar
    22   11   42 1
    23   12   13 ar
    24   12   25 1
    25   13   14 ar
    26   13   15 1
    27   14   43 1
    28   15   16 2
    29   15   17 2
    30   15   18 1
    31   18   23 1
    32   18   19 1
    33   19   20 1
    34   19   44 1
    35   19   45 1
    36   20   21 1
    37   20   46 1
    38   20   47 1
    39   21   22 1
    40   21   24 1
    41   21   57 1
    42   22   23 1
    43   22   48 1
    44   22   49 1
    45   23   50 1
    46   23   51 1
    47   24   52 1
    48   24   53 1
    49   24   54 1
    50   25   55 1
    51   27   35 1
    52   27   28 am
    53   28   29 2
    54   28   30 am
    55   30   31 1
    56   30   32 am
    57   32   33 2
    58   32   34 1
    59   34   35 2
    60   34   56 1
@<TRIPOS>MOLECULE
CHEMBL183851
   60    62     0     0     0
SMALL
USER_CHARGES

@<TRIPOS>ATOM
      1 C1          0.3505    1.8128    0.1264 C.3       1 <0>        -0.1541
      2 C2          0.3059    0.2875    0.2374 C.3       1 <0>        -0.1258
      3 C3          0.8453   -0.3337   -1.0526 C.3       1 <0>        -0.1197
      4 C4          0.8007   -1.8590   -0.9417 C.3       1 <0>        -0.1136
      5 C5          1.3402   -2.4802   -2.2316 C.3       1 <0>        -0.0416
      6 C6          1.2962   -3.9826   -2.1223 C.2       1 <0>         0.1036
      7 C7          2.3570   -4.8381   -1.6001 C.ar      1 <0>        -0.1377
      8 C8          3.6340   -4.5947   -1.0810 C.ar      1 <0>        -0.0730
      9 C9          4.4097   -5.6552   -0.6623 C.ar      1 <0>         0.0852
     10 C10         3.9282   -6.9604   -0.7548 C.ar      1 <0>        -0.1313
     11 C11         2.6850   -7.2119   -1.2594 C.ar      1 <0>        -0.1038
     12 C12         1.8801   -6.1596   -1.6887 C.ar      1 <0>         0.1040
     13 N1          0.6203   -6.0888   -2.2279 N.pl3     1 <0>        -0.5094
     14 H1          0.0416   -6.8462   -2.4078 H         1 <0>         0.4408
     15 N2          0.3025   -4.7487   -2.4718 N.2       1 <0>        -0.2416
     16 O1          5.6511   -5.4267   -0.1570 O.3       1 <0>        -0.2489
     17 C13         6.3839   -6.4989    0.2445 C.ar      1 <0>         0.0697
     18 C14         6.2868   -6.9550    1.5516 C.ar      1 <0>        -0.0611
     19 C15         7.0306   -8.0437    1.9602 C.ar      1 <0>        -0.1164
     20 C16         7.8763   -8.6832    1.0623 C.ar      1 <0>         0.1523
     21 C17         7.9726   -8.2262   -0.2462 C.ar      1 <0>        -0.1336
     22 C18         7.2245   -7.1403   -0.6544 C.ar      1 <0>        -0.0622
     23 C19         7.3248   -6.6476   -2.0751 C.3       1 <0>        -0.1149
     24 N3          8.6305   -9.7859    1.4755 N.am      1 <0>        -0.6405
     25 C20         8.1338  -10.6350    2.3968 C.2       1 <0>         0.5324
     26 O2          6.9961  -10.4983    2.7973 O.2       1 <0>        -0.4626
     27 C21         8.9830  -11.7437    2.9248 C.2       1 <0>         0.4625
     28 O3         10.1196  -11.8803    2.5248 O.2       1 <0>        -0.4758
     29 O4          8.4871  -12.5914    3.8446 O.3       1 <0>        -0.3202
     30 C22         9.3551  -13.6288    4.3056 C.3       1 <0>         0.0563
     31 C23         8.6218  -14.4855    5.3397 C.3       1 <0>        -0.1538
     32 C24         5.3694   -6.2613    2.5253 C.3       1 <0>        -0.1171
     33 H2          1.3798    2.1358   -0.0297 H         1 <0>         0.0540
     34 H3         -0.2627    2.1339   -0.7156 H         1 <0>         0.0536
     35 H4         -0.0338    2.2553    1.0454 H         1 <0>         0.0531
     36 H5          0.9191   -0.0337    1.0794 H         1 <0>         0.0614
     37 H6         -0.7234   -0.0355    0.3934 H         1 <0>         0.0606
     38 H7          0.2321   -0.0126   -1.8946 H         1 <0>         0.0640
     39 H8          1.8746   -0.0107   -1.2087 H         1 <0>         0.0647
     40 H9          1.4139   -2.1802   -0.0997 H         1 <0>         0.0667
     41 H10        -0.2286   -2.1820   -0.7856 H         1 <0>         0.0656
     42 H11         0.7270   -2.1591   -3.0736 H         1 <0>         0.0853
     43 H12         2.3694   -2.1572   -2.3877 H         1 <0>         0.0883
     44 H13         4.0088   -3.5844   -1.0093 H         1 <0>         0.1384
     45 H14         4.5461   -7.7820   -0.4237 H         1 <0>         0.1343
     46 H15         2.3253   -8.2281   -1.3258 H         1 <0>         0.1305
     47 H16         6.9554   -8.3982    2.9776 H         1 <0>         0.1431
     48 H17         8.6300   -8.7225   -0.9446 H         1 <0>         0.1376
     49 H18         8.1172   -5.9026   -2.1462 H         1 <0>         0.0800
     50 H19         7.5531   -7.4848   -2.7347 H         1 <0>         0.0711
     51 H20         6.3767   -6.1992   -2.3720 H         1 <0>         0.0721
     52 H21         9.5112   -9.9396    1.0991 H         1 <0>         0.4260
     53 H22         9.6546  -14.2528    3.4635 H         1 <0>         0.0752
     54 H23        10.2400  -13.1859    4.7624 H         1 <0>         0.0754
     55 H24         8.3222  -13.8615    6.1817 H         1 <0>         0.0702
     56 H25         7.7368  -14.9284    4.8828 H         1 <0>         0.0701
     57 H26         9.2838  -15.2768    5.6912 H         1 <0>         0.0854
     58 H27         4.3817   -6.7207    2.4844 H         1 <0>         0.0756
     59 H28         5.7722   -6.3549    3.5338 H         1 <0>         0.0729
     60 H29         5.2906   -5.2065    2.2620 H         1 <0>         0.0770
@<TRIPOS>BOND
     1    1    2 1
     2    1   33 1
     3    1   34 1
     4    1   35 1
     5    2    3 1
     6    2   36 1
     7    2   37 1
     8    3    4 1
     9    3   38 1
    10    3   39 1
    11    4    5 1
    12    4   40 1
    13    4   41 1
    14    5    6 1
    15    5   42 1
    16    5   43 1
    17    6   15 2
    18    6    7 1
    19    7   12 ar
    20    7    8 ar
    21    8    9 ar
    22    8   44 1
    23    9   10 ar
    24    9   16 1
    25   10   11 ar
    26   10   45 1
    27   11   12 ar
    28   11   46 1
    29   12   13 1
    30   13   14 1
    31   13   15 1
    32   16   17 1
    33   17   22 ar
    34   17   18 ar
    35   18   19 ar
    36   18   32 1
    37   19   20 ar
    38   19   47 1
    39   20   21 ar
    40   20   24 1
    41   21   22 ar
    42   21   48 1
    43   22   23 1
    44   23   49 1
    45   23   50 1
    46   23   51 1
    47   24   25 am
    48   24   52 1
    49   25   26 2
    50   25   27 1
    51   27   28 2
    52   27   29 1
    53   29   30 1
    54   30   31 1
    55   30   53 1
    56   30   54 1
    57   31   55 1
    58   31   56 1
    59   31   57 1
    60   32   58 1
    61   32   59 1
    62   32   60 1
@<TRIPOS>MOLECULE
CHEMBL183851__1
   60    62     0     0     0
SMALL
USER_CHARGES

@<TRIPOS>ATOM
      1 C1          0.0077    1.2995   -0.2985 C.3       1 <0>        -0.1545
      2 C2         -0.1063   -0.2262   -0.2914 C.3       1 <0>        -0.1258
      3 C3         -1.5708   -0.6273   -0.1041 C.3       1 <0>        -0.1202
      4 C4         -1.6848   -2.1530   -0.0970 C.3       1 <0>        -0.1154
      5 C5         -3.1494   -2.5541    0.0904 C.3       1 <0>        -0.0596
      6 C6         -3.2617   -4.0569    0.0973 C.2       1 <0>         0.1094
      7 C7         -3.0832   -4.8809    1.1927 C.ar      1 <0>        -0.1707
      8 C8         -2.7680   -4.6718    2.5528 C.ar      1 <0>        -0.0844
      9 C9         -2.6658   -5.7408    3.3889 C.ar      1 <0>         0.0860
     10 C10        -2.8660   -7.0507    2.9337 C.ar      1 <0>        -0.1278
     11 C11        -3.1709   -7.3181    1.6403 C.ar      1 <0>        -0.0659
     12 C12        -3.2930   -6.2570    0.7171 C.ar      1 <0>         0.0873
     13 N1         -3.5708   -6.1766   -0.5720 N.2       1 <0>        -0.2959
     14 H1         -3.7358   -4.5066   -1.8535 H         1 <0>         0.4425
     15 N2         -3.5582   -4.8311   -0.9568 N.pl3     1 <0>        -0.4214
     16 O1         -2.3615   -5.5326    4.6975 O.3       1 <0>        -0.2523
     17 C13        -2.2655   -6.6175    5.5108 C.ar      1 <0>         0.0721
     18 C14        -3.3885   -7.0848    6.1791 C.ar      1 <0>        -0.0622
     19 C15        -3.2919   -8.1867    7.0049 C.ar      1 <0>        -0.1161
     20 C16        -2.0702   -8.8281    7.1668 C.ar      1 <0>         0.1509
     21 C17        -0.9465   -8.3597    6.4973 C.ar      1 <0>        -0.1333
     22 C18        -1.0458   -7.2608    5.6678 C.ar      1 <0>        -0.0633
     23 C19         0.1716   -6.7560    4.9371 C.3       1 <0>        -0.1145
     24 N3         -1.9714   -9.9442    8.0034 N.am      1 <0>        -0.6404
     25 C20        -3.0099  -10.7958    8.1162 C.2       1 <0>         0.5321
     26 O2         -3.9938  -10.6486    7.4208 O.2       1 <0>        -0.4623
     27 C21        -2.9500  -11.9204    9.0966 C.2       1 <0>         0.4626
     28 O3         -1.9671  -12.0674    9.7914 O.2       1 <0>        -0.4763
     29 O4         -3.9868  -12.7706    9.2092 O.3       1 <0>        -0.3201
     30 C22        -3.8614  -13.8233   10.1674 C.3       1 <0>         0.0562
     31 C23        -5.1286  -14.6806   10.1520 C.3       1 <0>        -0.1538
     32 C24        -4.7135   -6.3886    6.0038 C.3       1 <0>        -0.1167
     33 H2          1.0511    1.5853   -0.4320 H         1 <0>         0.0541
     34 H3         -0.5874    1.7046   -1.1169 H         1 <0>         0.0534
     35 H4         -0.3592    1.6957    0.6483 H         1 <0>         0.0545
     36 H5          0.2607   -0.6224   -1.2383 H         1 <0>         0.0604
     37 H6          0.4889   -0.6312    0.5270 H         1 <0>         0.0626
     38 H7         -1.9378   -0.2311    0.8427 H         1 <0>         0.0662
     39 H8         -2.1660   -0.2223   -0.9225 H         1 <0>         0.0632
     40 H9         -1.3179   -2.5492   -1.0438 H         1 <0>         0.0633
     41 H10        -1.0896   -2.5581    0.7214 H         1 <0>         0.0720
     42 H11        -3.5163   -2.1580    1.0372 H         1 <0>         0.0965
     43 H12        -3.7446   -2.1491   -0.7281 H         1 <0>         0.0808
     44 H13        -2.6089   -3.6712    2.9269 H         1 <0>         0.1319
     45 H14        -2.7745   -7.8694    3.6321 H         1 <0>         0.1323
     46 H15        -3.3195   -8.3379    1.3175 H         1 <0>         0.1339
     47 H16        -4.1658   -8.5500    7.5252 H         1 <0>         0.1426
     48 H17         0.0037   -8.8575    6.6229 H         1 <0>         0.1372
     49 H18         0.6869   -6.0202    5.5545 H         1 <0>         0.0790
     50 H19         0.8424   -7.5897    4.7294 H         1 <0>         0.0708
     51 H20        -0.1338   -6.2930    3.9987 H         1 <0>         0.0726
     52 H21        -1.1555  -10.1054    8.5026 H         1 <0>         0.4257
     53 H22        -3.0005  -14.4429    9.9159 H         1 <0>         0.0751
     54 H23        -3.7238  -13.3961   11.1607 H         1 <0>         0.0752
     55 H24        -5.2662  -15.1078    9.1588 H         1 <0>         0.0702
     56 H25        -5.0329  -15.4836   10.8829 H         1 <0>         0.0852
     57 H26        -5.9894  -14.0611   10.4035 H         1 <0>         0.0702
     58 H27        -5.2504   -6.8350    5.1667 H         1 <0>         0.0760
     59 H28        -5.3041   -6.4970    6.9135 H         1 <0>         0.0722
     60 H29        -4.5444   -5.3305    5.8042 H         1 <0>         0.0766
@<TRIPOS>BOND
     1    1    2 1
     2    1   33 1
     3    1   34 1
     4    1   35 1
     5    2    3 1
     6    2   36 1
     7    2   37 1
     8    3    4 1
     9    3   38 1
    10    3   39 1
    11    4    5 1
    12    4   40 1
    13    4   41 1
    14    5    6 1
    15    5   42 1
    16    5   43 1
    17    6    7 2
    18    6   15 1
    19    7    8 ar
    20    7   12 ar
    21    8    9 ar
    22    8   44 1
    23    9   10 ar
    24    9   16 1
    25   10   11 ar
    26   10   45 1
    27   11   12 ar
    28   11   46 1
    29   12   13 2
    30   13   15 1
    31   14   15 1
    32   16   17 1
    33   17   22 ar
    34   17   18 ar
    35   18   19 ar
    36   18   32 1
    37   19   20 ar
    38   19   47 1
    39   20   21 ar
    40   20   24 1
    41   21   22 ar
    42   21   48 1
    43   22   23 1
    44   23   49 1
    45   23   50 1
    46   23   51 1
    47   24   25 am
    48   24   52 1
    49   25   26 2
    50   25   27 1
    51   27   28 2
    52   27   29 1
    53   29   30 1
    54   30   31 1
    55   30   53 1
    56   30   54 1
    57   31   55 1
    58   31   56 1
    59   31   57 1
    60   32   58 1
    61   32   59 1
    62   32   60 1
@<TRIPOS>MOLECULE
CHEMBL480312
   42    44     0     0     0
SMALL
USER_CHARGES

@<TRIPOS>ATOM
      1 C1         -0.0187    1.5258    0.0104 C.3       1 <0>        -0.1440
      2 C2          0.0021   -0.0041    0.0020 C.3       1 <0>        -0.0567
      3 C3          0.7421   -0.5109    1.2415 C.3       1 <0>        -0.1461
      4 C4         -1.4117   -0.5257    0.0127 C.ar      1 <0>        -0.0614
      5 C5         -2.2585   -0.2044    1.0558 C.ar      1 <0>        -0.1171
      6 C6         -3.5600   -0.6842    1.0653 C.ar      1 <0>         0.1149
      7 C7         -4.0111   -1.4868    0.0272 C.ar      1 <0>        -0.1770
      8 C8         -3.1643   -1.8078   -1.0154 C.ar      1 <0>        -0.0994
      9 C9         -1.8643   -1.3235   -1.0275 C.ar      1 <0>         0.0808
     10 O1         -1.0324   -1.6350   -2.0569 O.3       1 <0>        -0.4919
     11 O2         -4.3934   -0.3685    2.0920 O.3       1 <0>        -0.2392
     12 C10        -5.6602   -0.8606    2.0601 C.ar      1 <0>         0.1166
     13 C11        -6.6701   -0.1344    1.4410 C.ar      1 <0>        -0.0242
     14 C12        -7.9571   -0.6300    1.4063 C.ar      1 <0>        -0.0914
     15 C13        -8.2443   -1.8645    1.9951 C.ar      1 <0>         0.1026
     16 C14        -7.2255   -2.5915    2.6168 C.ar      1 <0>        -0.0734
     17 C15        -5.9402   -2.0910    2.6419 C.ar      1 <0>        -0.0161
     18 Cl1        -4.6721   -2.9966    3.4071 Cl        1 <0>        -0.0104
     19 N1         -9.5181   -2.3591    1.9635 N.pl3     1 <0>        -0.4991
     20 C16        -9.7259   -3.6179    1.6548 C.2       1 <0>         0.1091
     21 C17        -8.8731   -4.7788    1.2985 C.2       1 <0>         0.3656
     22 C18       -10.0459   -5.5568    1.1794 C.2       1 <0>        -0.0262
     23 O3        -10.2605   -6.8563    0.8607 O.3       1 <0>        -0.4085
     24 C19       -10.9144   -4.4957    1.5181 C.2       1 <0>         0.3347
     25 O4        -12.1252   -4.3591    1.6448 O.2       1 <0>        -0.4754
     26 O5         -7.6715   -4.9768    1.1653 O.3       1 <0>        -0.4562
     27 Cl2        -6.3120    1.3992    0.7105 Cl        1 <0>        -0.0133
     28 H1          1.0039    1.9031    0.0027 H         1 <0>         0.0611
     29 H2         -0.5459    1.8868   -0.8726 H         1 <0>         0.0570
     30 H3         -0.5289    1.8773    0.9072 H         1 <0>         0.0572
     31 H4          0.5123   -0.3556   -0.8948 H         1 <0>         0.0891
     32 H5          0.2319   -0.1594    2.1383 H         1 <0>         0.0581
     33 H6          0.7568   -1.6008    1.2356 H         1 <0>         0.0554
     34 H7          1.7647   -0.1336    1.2338 H         1 <0>         0.0616
     35 H8         -1.9072    0.4200    1.8639 H         1 <0>         0.1384
     36 H9         -5.0243   -1.8607    0.0347 H         1 <0>         0.1261
     37 H10        -3.5153   -2.4327   -1.8232 H         1 <0>         0.1349
     38 H11        -0.5228   -2.4453   -1.9194 H         1 <0>         0.3884
     39 H12        -8.7415   -0.0648    0.9252 H         1 <0>         0.1619
     40 H13        -7.4433   -3.5458    3.0734 H         1 <0>         0.1593
     41 H14       -10.2685   -1.7799    2.1691 H         1 <0>         0.4397
     42 H15       -11.1930   -7.1121    0.8591 H         1 <0>         0.4146
@<TRIPOS>BOND
     1    1    2 1
     2    1   28 1
     3    1   29 1
     4    1   30 1
     5    2    3 1
     6    2    4 1
     7    2   31 1
     8    3   32 1
     9    3   33 1
    10    3   34 1
    11    4    9 ar
    12    4    5 ar
    13    5    6 ar
    14    5   35 1
    15    6    7 ar
    16    6   11 1
    17    7    8 ar
    18    7   36 1
    19    8    9 ar
    20    8   37 1
    21    9   10 1
    22   10   38 1
    23   11   12 1
    24   12   17 ar
    25   12   13 ar
    26   13   14 ar
    27   13   27 1
    28   14   15 ar
    29   14   39 1
    30   15   16 ar
    31   15   19 1
    32   16   17 ar
    33   16   40 1
    34   17   18 1
    35   19   20 2
    36   19   41 1
    37   20   24 1
    38   20   21 1
    39   21   22 2
    40   21   26 1
    41   22   23 1
    42   22   24 1
    43   23   42 1
    44   24   25 2
@<TRIPOS>MOLECULE
CHEMBL250308
   42    43     0     0     0
SMALL
USER_CHARGES

@<TRIPOS>ATOM
      1 C1         -0.0187    1.5258    0.0104 C.3       1 <0>        -0.1652
      2 C2          0.0021   -0.0041    0.0020 C.3       1 <0>         0.1213
      3 N1          0.6878   -0.4765   -1.2033 N.pl3     1 <0>        -0.7516
      4 C3          0.8319   -1.8467   -1.4331 C.ar      1 <0>         0.2088
      5 C4          0.3205   -2.7629   -0.5225 C.ar      1 <0>        -0.1895
      6 C5          0.4643   -4.1167   -0.7529 C.ar      1 <0>        -0.0772
      7 C6          1.1169   -4.5610   -1.8885 C.ar      1 <0>        -0.1492
      8 C7          1.6275   -3.6519   -2.7966 C.ar      1 <0>        -0.0387
      9 C8          1.4817   -2.2963   -2.5753 C.ar      1 <0>        -0.1661
     10 C9          2.3387   -4.1407   -4.0320 C.3       1 <0>         0.1051
     11 O1          1.3941   -4.3064   -5.0913 O.3       1 <0>        -0.3085
     12 C10         1.8755   -4.7450   -6.2845 C.ar      1 <0>         0.1314
     13 C11         2.3122   -3.8333   -7.2354 C.ar      1 <0>        -0.1015
     14 C12         2.8017   -4.2822   -8.4478 C.ar      1 <0>        -0.0655
     15 C13         2.8561   -5.6378   -8.7136 C.ar      1 <0>        -0.0544
     16 C14         2.4213   -6.5483   -7.7684 C.ar      1 <0>        -0.0652
     17 C15         1.9365   -6.1054   -6.5519 C.ar      1 <0>        -0.1015
     18 Br1         1.3494   -7.3517   -5.2566 Br        1 <0>        -0.0339
     19 C16         3.3898   -6.1240  -10.0364 C.3       1 <0>        -0.0604
     20 C17         4.8999   -6.3445   -9.9271 C.3       1 <0>        -0.1770
     21 C18         5.4337   -6.8306  -11.2499 C.2       1 <0>         0.4905
     22 O2          4.6764   -6.9864  -12.1927 O.co2     1 <0>        -0.6971
     23 O3          6.6227   -7.0682  -11.3773 O.co2     1 <0>        -0.7032
     24 Br2         2.2370   -1.9789   -6.8731 Br        1 <0>        -0.0361
     25 H1          1.0039    1.9031    0.0027 H         1 <0>         0.0610
     26 H2         -0.5459    1.8868   -0.8726 H         1 <0>         0.0613
     27 H3         -0.5289    1.8773    0.9072 H         1 <0>         0.0719
     28 H4          0.5293   -0.3651    0.8851 H         1 <0>         0.0576
     29 H5         -1.0205   -0.3814    0.0098 H         1 <0>         0.0578
     30 H6          1.0417    0.1622   -1.8418 H         1 <0>         0.3988
     31 H7         -0.1886   -2.4166    0.3648 H         1 <0>         0.1187
     32 H8          0.0670   -4.8295   -0.0455 H         1 <0>         0.1214
     33 H9          1.2283   -5.6205   -2.0662 H         1 <0>         0.1202
     34 H10         1.8765   -1.5868   -3.2874 H         1 <0>         0.1208
     35 H11         3.0934   -3.4124   -4.3289 H         1 <0>         0.0644
     36 H12         2.8191   -5.0961   -3.8207 H         1 <0>         0.0664
     37 H13         3.1417   -3.5731   -9.1881 H         1 <0>         0.1440
     38 H14         2.4646   -7.6067   -7.9788 H         1 <0>         0.1443
     39 H15         2.9038   -7.0630  -10.3014 H         1 <0>         0.0792
     40 H16         3.1861   -5.3796  -10.8062 H         1 <0>         0.0790
     41 H17         5.3859   -5.4055   -9.6622 H         1 <0>         0.0590
     42 H18         5.1037   -7.0888   -9.1574 H         1 <0>         0.0592
@<TRIPOS>BOND
     1    1    2 1
     2    1   25 1
     3    1   26 1
     4    1   27 1
     5    2    3 1
     6    2   28 1
     7    2   29 1
     8    3    4 1
     9    3   30 1
    10    4    9 ar
    11    4    5 ar
    12    5    6 ar
    13    5   31 1
    14    6    7 ar
    15    6   32 1
    16    7    8 ar
    17    7   33 1
    18    8    9 ar
    19    8   10 1
    20    9   34 1
    21   10   11 1
    22   10   35 1
    23   10   36 1
    24   11   12 1
    25   12   17 ar
    26   12   13 ar
    27   13   14 ar
    28   13   24 1
    29   14   15 ar
    30   14   37 1
    31   15   16 ar
    32   15   19 1
    33   16   17 ar
    34   16   38 1
    35   17   18 1
    36   19   20 1
    37   19   39 1
    38   19   40 1
    39   20   21 1
    40   20   41 1
    41   20   42 1
    42   21   22 2
    43   21   23 1
@<TRIPOS>MOLECULE
CHEMBL124039
   48    51     0     0     0
SMALL
USER_CHARGES

@<TRIPOS>ATOM
      1 C1         -0.0171    1.4984    0.4348 C.ar      1 <0>        -0.1202
      2 C2          1.1560    2.1790    0.6971 C.ar      1 <0>        -0.1204
      3 C3          2.3632    1.4967    0.7204 C.ar      1 <0>         0.1825
      4 C4          2.3929    0.1308    0.4798 C.ar      1 <0>        -0.6676
      5 C5          1.2204   -0.5498    0.2171 C.ar      1 <0>        -0.0250
      6 C6          0.0124    0.1325    0.1947 C.ar      1 <0>         0.0966
      7 O1         -1.1422   -0.5375   -0.0631 O.3       1 <0>        -0.2329
      8 C7         -2.3023    0.1712   -0.0756 C.ar      1 <0>         0.1030
      9 C8         -3.0325    0.3281    1.0950 C.ar      1 <0>        -0.0248
     10 C9         -4.2114    1.0483    1.0826 C.ar      1 <0>        -0.0790
     11 C10        -4.6662    1.6153   -0.1010 C.ar      1 <0>         0.1878
     12 C11        -3.9356    1.4582   -1.2718 C.ar      1 <0>        -0.0731
     13 C12        -2.7539    0.7428   -1.2577 C.ar      1 <0>        -0.0227
     14 Cl1        -1.8370    0.5523   -2.7194 Cl        1 <0>        -0.0142
     15 N1         -5.8615    2.3450   -0.1139 N.am      1 <0>        -0.4048
     16 C13        -6.7907    2.0799   -1.0493 C.2       1 <0>         0.6842
     17 O2         -6.5807    1.2099   -1.8723 O.2       1 <0>        -0.5096
     18 N2         -7.9502    2.7629   -1.0879 N.am      1 <0>        -0.6530
     19 H1         -8.6103    2.5593   -1.7688 H         1 <0>         0.4404
     20 C14        -8.1948    3.7302   -0.1798 C.2       1 <0>         0.5164
     21 O3         -9.2412    4.3514   -0.2080 O.2       1 <0>        -0.4652
     22 C15        -7.1856    4.0232    0.8410 C.2       1 <0>         0.0701
     23 N3         -6.0758    3.3368    0.8505 N.2       1 <0>        -0.1690
     24 Cl2        -2.4642   -0.3812    2.5741 Cl        1 <0>        -0.0176
     25 S1          3.9269   -0.7357    0.5089 S.o2      1 <0>         2.6948
     26 O4          3.6263   -2.1020    0.2597 O.2       1 <0>        -0.9518
     27 O5          4.8278    0.0063   -0.3016 O.2       1 <0>        -0.9385
     28 N4          4.5063   -0.6535    2.0581 N.pl3     1 <0>        -1.1037
     29 C16         3.7526   -1.2648    3.1555 C.3       1 <0>         0.1216
     30 C17         3.2715   -0.2544    4.2103 C.3       1 <0>        -0.1577
     31 C18         3.6354   -1.3071    5.2705 C.3       1 <0>        -0.1410
     32 C19         4.6438   -1.8680    4.2540 C.3       1 <0>        -0.1427
     33 O6          3.5179    2.1668    0.9786 O.3       1 <0>        -0.4832
     34 H2         -0.9577    2.0289    0.4210 H         1 <0>         0.1366
     35 H3          1.1331    3.2425    0.8837 H         1 <0>         0.1459
     36 H4          1.2436   -1.6130    0.0291 H         1 <0>         0.1607
     37 H5         -4.7795    1.1700    1.9930 H         1 <0>         0.1601
     38 H6         -4.2891    1.8990   -2.1922 H         1 <0>         0.1578
     39 H7         -7.3597    4.7932    1.5781 H         1 <0>         0.2342
     40 H8          5.3448   -0.2005    2.2388 H         1 <0>         0.4214
     41 H9          2.9710   -1.9402    2.8075 H         1 <0>         0.1177
     42 H10         3.8824    0.6468    4.2622 H         1 <0>         0.0885
     43 H11         2.2041   -0.0408    4.1554 H         1 <0>         0.0728
     44 H12         4.1017   -0.8865    6.1615 H         1 <0>         0.0756
     45 H13         2.8209   -1.9936    5.5018 H         1 <0>         0.0853
     46 H14         4.6843   -2.9571    4.2344 H         1 <0>         0.0778
     47 H15         5.6299   -1.4079    4.3178 H         1 <0>         0.0898
     48 H16         3.7482    2.2066    1.9170 H         1 <0>         0.3961
@<TRIPOS>BOND
     1    1    6 ar
     2    1    2 ar
     3    1   34 1
     4    2    3 ar
     5    2   35 1
     6    3    4 ar
     7    3   33 1
     8    4    5 ar
     9    4   25 1
    10    5    6 ar
    11    5   36 1
    12    6    7 1
    13    7    8 1
    14    8   13 ar
    15    8    9 ar
    16    9   10 ar
    17    9   24 1
    18   10   11 ar
    19   10   37 1
    20   11   12 ar
    21   11   15 1
    22   12   13 ar
    23   12   38 1
    24   13   14 1
    25   15   23 1
    26   15   16 am
    27   16   17 2
    28   16   18 am
    29   18   19 1
    30   18   20 am
    31   20   21 2
    32   20   22 1
    33   22   23 2
    34   22   39 1
    35   25   26 2
    36   25   27 2
    37   25   28 1
    38   28   29 1
    39   28   40 1
    40   29   32 1
    41   29   30 1
    42   29   41 1
    43   30   31 1
    44   30   42 1
    45   30   43 1
    46   31   32 1
    47   31   44 1
    48   31   45 1
    49   32   46 1
    50   32   47 1
    51   33   48 1
@<TRIPOS>MOLECULE
CHEMBL124039__1
   47    50     0     0     0
SMALL
USER_CHARGES

@<TRIPOS>ATOM
      1 C1         -0.0207    1.4944    0.4331 C.ar      1 <0>        -0.0890
      2 C2          1.1514    2.1761    0.6970 C.ar      1 <0>        -0.2204
      3 C3          2.3594    1.4952    0.7208 C.ar      1 <0>         0.3352
      4 C4          2.3908    0.1295    0.4793 C.ar      1 <0>        -0.7934
      5 C5          1.2193   -0.5522    0.2151 C.ar      1 <0>         0.0151
      6 C6          0.0106    0.1287    0.1921 C.ar      1 <0>        -0.0403
      7 O1         -1.1430   -0.5424   -0.0671 O.3       1 <0>        -0.2511
      8 C7         -2.3039    0.1650   -0.0801 C.ar      1 <0>         0.1436
      9 C8         -3.0353    0.3203    1.0900 C.ar      1 <0>        -0.0339
     10 C9         -4.2150    1.0391    1.0770 C.ar      1 <0>        -0.0792
     11 C10        -4.6695    1.6065   -0.1065 C.ar      1 <0>         0.1603
     12 C11        -3.9377    1.4510   -1.2768 C.ar      1 <0>        -0.0730
     13 C12        -2.7551    0.7369   -1.2622 C.ar      1 <0>        -0.0316
     14 Cl1        -1.8368    0.5485   -2.7233 Cl        1 <0>        -0.0204
     15 N1         -5.8655    2.3348   -0.1200 N.am      1 <0>        -0.3955
     16 C13        -6.7937    2.0693   -1.0563 C.2       1 <0>         0.6816
     17 O2         -6.5820    1.2000   -1.8797 O.2       1 <0>        -0.5102
     18 N2         -7.9539    2.7510   -1.0954 N.am      1 <0>        -0.6538
     19 H1         -8.6132    2.5471   -1.7770 H         1 <0>         0.4374
     20 C14        -8.2003    3.7174   -0.1869 C.2       1 <0>         0.5193
     21 O3         -9.2474    4.3375   -0.2155 O.2       1 <0>        -0.4764
     22 C15        -7.1923    4.0110    0.8349 C.2       1 <0>         0.0553
     23 N3         -6.0818    3.3258    0.8449 N.2       1 <0>        -0.1605
     24 Cl2        -2.4675   -0.3894    2.5690 Cl        1 <0>        -0.0225
     25 S1          3.9257   -0.7353    0.5091 S.o2      1 <0>         2.7134
     26 O4          3.6268   -2.1019    0.2595 O.2       1 <0>        -0.9989
     27 O5          4.8264    0.0078   -0.3007 O.2       1 <0>        -0.9674
     28 N4          4.5042   -0.6528    2.0586 N.pl3     1 <0>        -1.0999
     29 C16         3.7499   -1.2642    3.1557 C.3       1 <0>         0.1360
     30 C17         3.2680   -0.2538    4.2100 C.3       1 <0>        -0.1506
     31 C18         3.6314   -1.3063    5.2706 C.3       1 <0>        -0.1427
     32 C19         4.6406   -1.8670    4.2548 C.3       1 <0>        -0.1446
     33 O6          3.5131    2.1664    0.9805 O.3       1 <0>        -0.6877
     34 H2         -0.9619    2.0238    0.4190 H         1 <0>         0.0991
     35 H3          1.1272    3.2395    0.8843 H         1 <0>         0.1082
     36 H4          1.2439   -1.6153    0.0264 H         1 <0>         0.1238
     37 H5         -4.7840    1.1595    1.9871 H         1 <0>         0.1521
     38 H6         -4.2908    1.8921   -2.1972 H         1 <0>         0.1498
     39 H7         -7.3678    4.7803    1.5724 H         1 <0>         0.2310
     40 H8          5.3425   -0.1996    2.2399 H         1 <0>         0.4130
     41 H9          2.9687   -1.9398    2.8072 H         1 <0>         0.1102
     42 H10         3.8786    0.6476    4.2622 H         1 <0>         0.0883
     43 H11         2.2005   -0.0405    4.1545 H         1 <0>         0.0696
     44 H12         4.0970   -0.8855    6.1618 H         1 <0>         0.0674
     45 H13         2.8170   -1.9929    5.5014 H         1 <0>         0.0792
     46 H14         4.6813   -2.9561    4.2353 H         1 <0>         0.0697
     47 H15         5.6266   -1.4067    4.3192 H         1 <0>         0.0841
@<TRIPOS>BOND
     1    1    6 ar
     2    1    2 ar
     3    1   34 1
     4    2    3 ar
     5    2   35 1
     6    3    4 ar
     7    3   33 1
     8    4    5 ar
     9    4   25 1
    10    5    6 ar
    11    5   36 1
    12    6    7 1
    13    7    8 1
    14    8   13 ar
    15    8    9 ar
    16    9   10 ar
    17    9   24 1
    18   10   11 ar
    19   10   37 1
    20   11   12 ar
    21   11   15 1
    22   12   13 ar
    23   12   38 1
    24   13   14 1
    25   15   23 1
    26   15   16 am
    27   16   17 2
    28   16   18 am
    29   18   19 1
    30   18   20 am
    31   20   21 2
    32   20   22 1
    33   22   23 2
    34   22   39 1
    35   25   26 2
    36   25   27 2
    37   25   28 1
    38   28   29 1
    39   28   40 1
    40   29   32 1
    41   29   30 1
    42   29   41 1
    43   30   31 1
    44   30   42 1
    45   30   43 1
    46   31   32 1
    47   31   44 1
    48   31   45 1
    49   32   46 1
    50   32   47 1
@<TRIPOS>MOLECULE
CHEMBL124039__2
   47    50     0     0     0
SMALL
USER_CHARGES

@<TRIPOS>ATOM
      1 C1          0.0303    1.5365    0.4386 C.ar      1 <0>        -0.1185
      2 C2          1.2111    2.2046    0.6981 C.ar      1 <0>        -0.1194
      3 C3          2.4113    1.5099    0.7174 C.ar      1 <0>         0.1741
      4 C4          2.4261    0.1439    0.4756 C.ar      1 <0>        -0.6683
      5 C5          1.2458   -0.5243    0.2161 C.ar      1 <0>        -0.0313
      6 C6          0.0449    0.1706    0.1972 C.ar      1 <0>         0.1042
      7 O1         -1.1172   -0.4872   -0.0579 O.3       1 <0>        -0.2311
      8 C7         -2.2698    0.2334   -0.0664 C.ar      1 <0>         0.0777
      9 C8         -2.9950    0.3969    1.1065 C.ar      1 <0>        -0.0219
     10 C9         -4.1663    1.1292    1.0981 C.ar      1 <0>        -0.0910
     11 C10        -4.6185    1.7024   -0.0838 C.ar      1 <0>         0.2031
     12 C11        -3.8926    1.5391   -1.2569 C.ar      1 <0>        -0.0722
     13 C12        -2.7188    0.8108   -1.2469 C.ar      1 <0>        -0.0198
     14 Cl1        -1.8084    0.6116   -2.7115 Cl        1 <0>        -0.0303
     15 N1         -5.8055    2.4440   -0.0927 N.am      1 <0>        -0.3721
     16 C13        -6.7371    2.1851   -1.0279 C.2       1 <0>         0.6174
     17 O2         -6.5384    1.3104   -1.8549 O.2       1 <0>        -0.5682
     18 N2         -7.8786    2.8788   -1.0573 N.2       1 <0>        -0.6225
     19 C14        -8.0817    3.8264   -0.1522 C.2       1 <0>         0.4329
     20 O3         -9.2258    4.5464   -0.1536 O.3       1 <0>        -0.6435
     21 C15        -7.0803    4.0688    0.8134 C.2       1 <0>         0.0095
     22 N3         -5.9855    3.3559    0.7971 N.2       1 <0>        -0.2237
     23 Cl2        -2.4299   -0.3195    2.5833 Cl        1 <0>        -0.0357
     24 S1          3.9512   -0.7383    0.4990 S.o2      1 <0>         2.6965
     25 O4          3.6358   -2.1011    0.2485 O.2       1 <0>        -0.9543
     26 O5          4.8575   -0.0044   -0.3129 O.2       1 <0>        -0.9419
     27 N4          4.5358   -0.6646    2.0466 N.pl3     1 <0>        -1.1045
     28 C16         3.7785   -1.2694    3.1453 C.3       1 <0>         0.1224
     29 C17         3.3112   -0.2555    4.2029 C.3       1 <0>        -0.1582
     30 C18         3.6668   -1.3137    5.2606 C.3       1 <0>        -0.1408
     31 C19         4.6663   -1.8838    4.2404 C.3       1 <0>        -0.1425
     32 O6          3.5736    2.1677    0.9730 O.3       1 <0>        -0.4843
     33 H1         -0.9048    2.0767    0.4279 H         1 <0>         0.1398
     34 H2          1.1998    3.2682    0.8857 H         1 <0>         0.1443
     35 H3          1.2574   -1.5876    0.0275 H         1 <0>         0.1585
     36 H4         -4.7307    1.2557    2.0102 H         1 <0>         0.1554
     37 H5         -4.2440    1.9843   -2.1759 H         1 <0>         0.1575
     38 H6         -7.2199    4.8349    1.5617 H         1 <0>         0.1841
     39 H7          5.3795   -0.2209    2.2257 H         1 <0>         0.4199
     40 H8          2.9888   -1.9359    2.7985 H         1 <0>         0.1183
     41 H9          3.9319    0.6390    4.2543 H         1 <0>         0.0881
     42 H10         2.2460   -0.0305    4.1513 H         1 <0>         0.0746
     43 H11         4.1399   -0.8994    6.1508 H         1 <0>         0.0744
     44 H12         2.8456   -1.9917    5.4931 H         1 <0>         0.0854
     45 H13         4.6951   -2.9732    4.2191 H         1 <0>         0.0767
     46 H14         5.6575   -1.4343    4.3022 H         1 <0>         0.0885
     47 H15         3.8069    2.2043    1.9107 H         1 <0>         0.3926
@<TRIPOS>BOND
     1    1    6 ar
     2    1    2 ar
     3    1   33 1
     4    2    3 ar
     5    2   34 1
     6    3    4 ar
     7    3   32 1
     8    4    5 ar
     9    4   24 1
    10    5    6 ar
    11    5   35 1
    12    6    7 1
    13    7    8 1
    14    8   13 ar
    15    8    9 ar
    16    9   10 ar
    17    9   23 1
    18   10   11 ar
    19   10   36 1
    20   11   12 ar
    21   11   15 1
    22   12   13 ar
    23   12   37 1
    24   13   14 1
    25   15   22 1
    26   15   16 am
    27   16   17 2
    28   16   18 1
    29   18   19 2
    30   19   20 1
    31   19   21 1
    32   21   22 2
    33   21   38 1
    34   24   25 2
    35   24   26 2
    36   24   27 1
    37   27   28 1
    38   27   39 1
    39   28   31 1
    40   28   29 1
    41   28   40 1
    42   29   30 1
    43   29   41 1
    44   29   42 1
    45   30   31 1
    46   30   43 1
    47   30   44 1
    48   31   45 1
    49   31   46 1
    50   32   47 1
@<TRIPOS>MOLECULE
CHEMBL560108
   54    55     0     0     0
SMALL
USER_CHARGES

@<TRIPOS>ATOM
      1 C1         -0.0187    1.5258    0.0104 C.3       1 <0>        -0.1550
      2 C2          0.0021   -0.0041    0.0020 C.3       1 <0>        -0.1256
      3 C3         -1.4333   -0.5336    0.0129 C.3       1 <0>        -0.1258
      4 C4         -1.4126   -2.0635    0.0045 C.3       1 <0>        -0.1118
      5 C5         -2.8479   -2.5931    0.0153 C.3       1 <0>        -0.1140
      6 C6         -2.8272   -4.1229    0.0069 C.3       1 <0>        -0.6033
      7 S1         -4.5290   -4.7508    0.0198 S.o2      1 <0>         2.4823
      8 O1         -5.1513   -4.4527    1.2620 O.2       1 <0>        -0.9236
      9 O2         -5.1749   -4.4395   -1.2071 O.2       1 <0>        -0.9087
     10 C7         -4.3645   -6.5051    0.0088 C.ar      1 <0>        -0.6211
     11 C8         -4.8000   -7.2436    1.0943 C.ar      1 <0>        -0.0124
     12 C9         -4.6743   -8.6184    1.0936 C.ar      1 <0>        -0.0076
     13 C10        -4.1046   -9.2647   -0.0100 C.ar      1 <0>        -0.0986
     14 C11        -3.6672   -8.5105   -1.1036 C.ar      1 <0>        -0.0698
     15 C12        -3.8049   -7.1376   -1.0894 C.ar      1 <0>         0.0326
     16 Cl1        -3.2687   -6.1998   -2.4483 Cl        1 <0>        -0.0222
     17 C13        -3.9662  -10.7289   -0.0191 C.2       1 <0>         0.3895
     18 O3         -4.3461  -11.3797    0.9310 O.2       1 <0>        -0.4099
     19 C14        -3.3524  -11.4205   -1.2090 C.3       1 <0>        -0.1666
     20 C15        -3.3273  -12.9306   -0.9644 C.3       1 <0>         0.0625
     21 N1         -2.7289  -13.6046   -2.1244 N.3       1 <0>        -0.5322
     22 C16        -2.8790  -15.0652   -2.0210 C.3       1 <0>         0.0327
     23 C17        -2.5273  -15.6920   -3.3715 C.3       1 <0>         0.1144
     24 N2         -1.2416  -15.1828   -3.8399 N.am      1 <0>        -0.7191
     25 C18        -0.6834  -14.0665   -3.3598 C.2       1 <0>         0.5249
     26 O4          0.3732  -13.6979   -3.8273 O.2       1 <0>        -0.5498
     27 C19        -1.3104  -13.2498   -2.2656 C.3       1 <0>         0.0321
     28 Cl2        -5.2205   -9.5431    2.4575 Cl        1 <0>        -0.0078
     29 H1          1.0039    1.9031    0.0027 H         1 <0>         0.0542
     30 H2         -0.5459    1.8868   -0.8726 H         1 <0>         0.0543
     31 H3         -0.5289    1.8773    0.9072 H         1 <0>         0.0543
     32 H4          0.5123   -0.3556   -0.8948 H         1 <0>         0.0616
     33 H5          0.5293   -0.3651    0.8851 H         1 <0>         0.0616
     34 H6         -1.9435   -0.1821    0.9097 H         1 <0>         0.0658
     35 H7         -1.9605   -0.1726   -0.8702 H         1 <0>         0.0657
     36 H8         -0.9024   -2.4150   -0.8923 H         1 <0>         0.0687
     37 H9         -0.8854   -2.4246    0.8875 H         1 <0>         0.0690
     38 H10        -3.3581   -2.2415    0.9121 H         1 <0>         0.0838
     39 H11        -3.3751   -2.2320   -0.8677 H         1 <0>         0.0840
     40 H12        -2.3170   -4.4744   -0.8899 H         1 <0>         0.1389
     41 H13        -2.3000   -4.4840    0.8900 H         1 <0>         0.1413
     42 H14        -5.2393   -6.7433    1.9447 H         1 <0>         0.1727
     43 H15        -3.2264   -9.0016   -1.9585 H         1 <0>         0.1643
     44 H16        -3.9444  -11.2064   -2.0989 H         1 <0>         0.1172
     45 H17        -2.3344  -11.0589   -1.3542 H         1 <0>         0.1053
     46 H18        -2.7353  -13.1446   -0.0745 H         1 <0>         0.0508
     47 H19        -4.3453  -13.2921   -0.8193 H         1 <0>         0.0924
     48 H20        -2.2061  -15.4484   -1.2539 H         1 <0>         0.0502
     49 H21        -3.9092  -15.3094   -1.7618 H         1 <0>         0.1013
     50 H22        -2.4697  -16.7751   -3.2635 H         1 <0>         0.0843
     51 H23        -3.3010  -15.4434   -4.0979 H         1 <0>         0.0776
     52 H24        -0.7711  -15.6764   -4.5297 H         1 <0>         0.4032
     53 H25        -1.2249  -12.1910   -2.5100 H         1 <0>         0.1157
     54 H26        -0.7932  -13.4456   -1.3263 H         1 <0>         0.0758
@<TRIPOS>BOND
     1    1    2 1
     2    1   29 1
     3    1   30 1
     4    1   31 1
     5    2    3 1
     6    2   32 1
     7    2   33 1
     8    3    4 1
     9    3   34 1
    10    3   35 1
    11    4    5 1
    12    4   36 1
    13    4   37 1
    14    5    6 1
    15    5   38 1
    16    5   39 1
    17    6    7 1
    18    6   40 1
    19    6   41 1
    20    7    8 2
    21    7    9 2
    22    7   10 1
    23   10   15 ar
    24   10   11 ar
    25   11   12 ar
    26   11   42 1
    27   12   13 ar
    28   12   28 1
    29   13   14 ar
    30   13   17 1
    31   14   15 ar
    32   14   43 1
    33   15   16 1
    34   17   18 2
    35   17   19 1
    36   19   20 1
    37   19   44 1
    38   19   45 1
    39   20   21 1
    40   20   46 1
    41   20   47 1
    42   21   27 1
    43   21   22 1
    44   22   23 1
    45   22   48 1
    46   22   49 1
    47   23   24 1
    48   23   50 1
    49   23   51 1
    50   24   25 am
    51   24   52 1
    52   25   26 2
    53   25   27 1
    54   27   53 1
    55   27   54 1
@<TRIPOS>MOLECULE
CHEMBL560108__1
   55    56     0     0     0
SMALL
USER_CHARGES

@<TRIPOS>ATOM
      1 C1         -0.0187    1.5258    0.0104 C.3       1 <0>        -0.1561
      2 C2          0.0021   -0.0041    0.0020 C.3       1 <0>        -0.1250
      3 C3         -1.4333   -0.5336    0.0129 C.3       1 <0>        -0.1266
      4 C4         -1.4126   -2.0635    0.0045 C.3       1 <0>        -0.1108
      5 C5         -2.8479   -2.5931    0.0153 C.3       1 <0>        -0.1156
      6 C6         -2.8272   -4.1229    0.0069 C.3       1 <0>        -0.5993
      7 S1         -4.5290   -4.7508    0.0198 S.o2      1 <0>         2.4757
      8 O1         -5.1513   -4.4527    1.2620 O.2       1 <0>        -0.9170
      9 O2         -5.1749   -4.4395   -1.2071 O.2       1 <0>        -0.9042
     10 C7         -4.3645   -6.5051    0.0088 C.ar      1 <0>        -0.6107
     11 C8         -4.8000   -7.2436    1.0943 C.ar      1 <0>        -0.0082
     12 C9         -4.6743   -8.6184    1.0936 C.ar      1 <0>        -0.0012
     13 C10        -4.1046   -9.2647   -0.0100 C.ar      1 <0>        -0.1139
     14 C11        -3.6672   -8.5105   -1.1036 C.ar      1 <0>        -0.0736
     15 C12        -3.8049   -7.1376   -1.0894 C.ar      1 <0>         0.0317
     16 Cl1        -3.2687   -6.1998   -2.4483 Cl        1 <0>        -0.0134
     17 C13        -3.9662  -10.7289   -0.0191 C.2       1 <0>         0.4022
     18 O3         -4.3461  -11.3797    0.9310 O.2       1 <0>        -0.4008
     19 C14        -3.3524  -11.4205   -1.2090 C.3       1 <0>        -0.2036
     20 C15        -3.3273  -12.9306   -0.9644 C.3       1 <0>        -0.0016
     21 N1         -2.7289  -13.6046   -2.1244 N.4       1 <0>        -0.3868
     22 C16        -2.7996  -15.0623   -1.9378 C.3       1 <0>        -0.0218
     23 C17        -2.4092  -15.7467   -3.2491 C.3       1 <0>         0.0825
     24 N2         -1.1429  -15.2043   -3.7352 N.am      1 <0>        -0.7227
     25 C18        -0.6409  -14.0435   -3.2987 C.2       1 <0>         0.5044
     26 O4          0.4050  -13.6485   -3.7687 O.2       1 <0>        -0.4866
     27 C19        -1.3206  -13.2092   -2.2504 C.3       1 <0>        -0.0240
     28 Cl2        -5.2205   -9.5431    2.4575 Cl        1 <0>        -0.0003
     29 H1          1.0039    1.9031    0.0027 H         1 <0>         0.0553
     30 H2         -0.5459    1.8868   -0.8726 H         1 <0>         0.0548
     31 H3         -0.5289    1.8773    0.9072 H         1 <0>         0.0551
     32 H4          0.5123   -0.3556   -0.8948 H         1 <0>         0.0612
     33 H5          0.5293   -0.3651    0.8851 H         1 <0>         0.0616
     34 H6         -1.9435   -0.1821    0.9097 H         1 <0>         0.0668
     35 H7         -1.9605   -0.1726   -0.8702 H         1 <0>         0.0664
     36 H8         -0.9024   -2.4150   -0.8923 H         1 <0>         0.0682
     37 H9         -0.8854   -2.4246    0.8875 H         1 <0>         0.0691
     38 H10        -3.3581   -2.2415    0.9121 H         1 <0>         0.0856
     39 H11        -3.3751   -2.2320   -0.8677 H         1 <0>         0.0853
     40 H12        -2.3170   -4.4744   -0.8899 H         1 <0>         0.1379
     41 H13        -2.3000   -4.4840    0.8900 H         1 <0>         0.1418
     42 H14        -5.2393   -6.7433    1.9447 H         1 <0>         0.1777
     43 H15        -3.2264   -9.0016   -1.9585 H         1 <0>         0.1594
     44 H16        -3.9444  -11.2064   -2.0989 H         1 <0>         0.1314
     45 H17        -2.3344  -11.0589   -1.3542 H         1 <0>         0.1283
     46 H18        -2.7353  -13.1446   -0.0745 H         1 <0>         0.1453
     47 H19        -4.3453  -13.2921   -0.8193 H         1 <0>         0.1493
     48 H20        -2.1102  -15.3635   -1.1491 H         1 <0>         0.1437
     49 H21        -3.8160  -15.3469   -1.6656 H         1 <0>         0.1580
     50 H22        -2.3032  -16.8184   -3.0806 H         1 <0>         0.1307
     51 H23        -3.1866  -15.5737   -3.9933 H         1 <0>         0.1018
     52 H24        -0.6462  -15.7058   -4.4005 H         1 <0>         0.4283
     53 H25        -1.2644  -12.1579   -2.5328 H         1 <0>         0.1667
     54 H26        -0.8183  -13.3516   -1.2936 H         1 <0>         0.1667
     55 H27        -3.2291  -13.3448   -2.9613 H         1 <0>         0.4310
@<TRIPOS>BOND
     1    1    2 1
     2    1   29 1
     3    1   30 1
     4    1   31 1
     5    2    3 1
     6    2   32 1
     7    2   33 1
     8    3    4 1
     9    3   34 1
    10    3   35 1
    11    4    5 1
    12    4   36 1
    13    4   37 1
    14    5    6 1
    15    5   38 1
    16    5   39 1
    17    6    7 1
    18    6   40 1
    19    6   41 1
    20    7    8 2
    21    7    9 2
    22    7   10 1
    23   10   15 ar
    24   10   11 ar
    25   11   12 ar
    26   11   42 1
    27   12   13 ar
    28   12   28 1
    29   13   14 ar
    30   13   17 1
    31   14   15 ar
    32   14   43 1
    33   15   16 1
    34   17   18 2
    35   17   19 1
    36   19   20 1
    37   19   44 1
    38   19   45 1
    39   20   21 1
    40   20   46 1
    41   20   47 1
    42   21   27 1
    43   21   22 1
    44   21   55 1
    45   22   23 1
    46   22   48 1
    47   22   49 1
    48   23   24 1
    49   23   50 1
    50   23   51 1
    51   24   25 am
    52   24   52 1
    53   25   26 2
    54   25   27 1
    55   27   53 1
    56   27   54 1
@<TRIPOS>MOLECULE
CHEMBL250513
   49    50     0     0     0
SMALL
NO_CHARGES

@<TRIPOS>ATOM
      1 C1         -0.0187    1.5258    0.0104 C.3       1 <0>        -0.1876
      2 C2          0.0021   -0.0041    0.0020 C.3       1 <0>        -0.0111
      3 N1          0.7126   -0.4907    1.1921 N.4       1 <0>        -0.3222
      4 C3         -0.0399   -0.1189    2.3978 C.3       1 <0>        -0.0157
      5 C4          0.7599   -0.5150    3.6405 C.3       1 <0>        -0.1846
      6 C5          0.8312   -1.8822    1.1275 C.ar      1 <0>        -0.0487
      7 C6         -0.3028   -2.6705    1.0642 C.ar      1 <0>        -0.0853
      8 C7         -0.1855   -4.0461    1.0003 C.ar      1 <0>        -0.0957
      9 C8          1.0659   -4.6339    0.9993 C.ar      1 <0>        -0.0472
     10 C9          2.1996   -3.8458    1.0617 C.ar      1 <0>        -0.0538
     11 C10         2.0824   -2.4695    1.1213 C.ar      1 <0>        -0.0681
     12 C11         3.5637   -4.4865    1.0611 C.3       1 <0>         0.0912
     13 O1          4.0243   -4.6249   -0.2845 O.3       1 <0>        -0.3083
     14 C12         5.2480   -5.1893   -0.4630 C.ar      1 <0>         0.1187
     15 C13         6.3843   -4.3930   -0.4856 C.ar      1 <0>        -0.0954
     16 C14         7.6275   -4.9697   -0.6667 C.ar      1 <0>        -0.0648
     17 C15         7.7393   -6.3386   -0.8257 C.ar      1 <0>        -0.0415
     18 C16         6.6089   -7.1344   -0.8041 C.ar      1 <0>        -0.0636
     19 C17         5.3638   -6.5637   -0.6171 C.ar      1 <0>        -0.0966
     20 Br1         3.8190   -7.6537   -0.5798 Br        1 <0>        -0.0324
     21 C18         9.0959   -6.9644   -1.0235 C.3       1 <0>        -0.0653
     22 C19         9.6918   -7.3308    0.3372 C.3       1 <0>        -0.1767
     23 C20        11.0484   -7.9566    0.1394 C.2       1 <0>         0.4893
     24 O2         11.4971   -8.0965   -0.9856 O.co2     1 <0>        -0.6947
     25 O3         11.6973   -8.3229    1.1044 O.co2     1 <0>        -0.6996
     26 Br2         6.2321   -2.5205   -0.2694 Br        1 <0>        -0.0427
     27 H1          1.0039    1.9031    0.0027 H         1 <0>         0.0812
     28 H2         -0.5459    1.8868   -0.8726 H         1 <0>         0.1073
     29 H3         -0.5289    1.8773    0.9072 H         1 <0>         0.0804
     30 H4         -1.0205   -0.3814    0.0098 H         1 <0>         0.1284
     31 H5          0.5123   -0.3556   -0.8948 H         1 <0>         0.1324
     32 H6         -0.2092    0.9579    2.4027 H         1 <0>         0.1339
     33 H7         -0.9985   -0.6375    2.4021 H         1 <0>         0.1277
     34 H8          1.7186    0.0036    3.6361 H         1 <0>         0.0790
     35 H9          0.2016   -0.2391    4.5351 H         1 <0>         0.1046
     36 H10         0.9293   -1.5918    3.6356 H         1 <0>         0.0814
     37 H11        -1.2803   -2.2113    1.0650 H         1 <0>         0.1426
     38 H12        -1.0714   -4.6619    0.9516 H         1 <0>         0.1509
     39 H13         1.1576   -5.7089    0.9501 H         1 <0>         0.1479
     40 H14         2.9683   -1.8535    1.1662 H         1 <0>         0.1461
     41 H15         4.2591   -3.8610    1.6207 H         1 <0>         0.0745
     42 H16         3.5034   -5.4698    1.5274 H         1 <0>         0.0790
     43 H17         8.5121   -4.3505   -0.6844 H         1 <0>         0.1479
     44 H18         6.6992   -8.2033   -0.9289 H         1 <0>         0.1487
     45 H19         8.9960   -7.8641   -1.6306 H         1 <0>         0.0828
     46 H20         9.7526   -6.2562   -1.5289 H         1 <0>         0.0824
     47 H21         9.7918   -6.4310    0.9443 H         1 <0>         0.0587
     48 H22         9.0352   -8.0390    0.8426 H         1 <0>         0.0593
     49 H23         1.6317   -0.0761    1.2281 H         1 <0>         0.4255
@<TRIPOS>BOND
     1    1    2 1
     2    1   27 1
     3    1   28 1
     4    1   29 1
     5    2    3 1
     6    2   30 1
     7    2   31 1
     8    3    4 1
     9    3    6 1
    10    3   49 1
    11    4    5 1
    12    4   32 1
    13    4   33 1
    14    5   34 1
    15    5   35 1
    16    5   36 1
    17    6   11 ar
    18    6    7 ar
    19    7    8 ar
    20    7   37 1
    21    8    9 ar
    22    8   38 1
    23    9   10 ar
    24    9   39 1
    25   10   11 ar
    26   10   12 1
    27   11   40 1
    28   12   13 1
    29   12   41 1
    30   12   42 1
    31   13   14 1
    32   14   19 ar
    33   14   15 ar
    34   15   16 ar
    35   15   26 1
    36   16   17 ar
    37   16   43 1
    38   17   18 ar
    39   17   21 1
    40   18   19 ar
    41   18   44 1
    42   19   20 1
    43   21   22 1
    44   21   45 1
    45   21   46 1
    46   22   23 1
    47   22   47 1
    48   22   48 1
    49   23   24 2
    50   23   25 1
@<TRIPOS>MOLECULE
CHEMBL250513__1
   48    49     0     0     0
SMALL
USER_CHARGES

@<TRIPOS>ATOM
      1 C1         -0.0187    1.5258    0.0104 C.3       1 <0>        -0.1733
      2 C2          0.0021   -0.0041    0.0020 C.3       1 <0>         0.1206
      3 N1         -1.3723   -0.5112    0.0124 N.pl3     1 <0>        -0.6290
      4 C3         -2.0716   -0.7579   -1.2510 C.3       1 <0>         0.1181
      5 C4         -1.8159   -2.1971   -1.7029 C.3       1 <0>        -0.1724
      6 C5         -2.0160   -0.7594    1.2269 C.ar      1 <0>         0.2128
      7 C6         -1.3563   -0.5205    2.4261 C.ar      1 <0>        -0.1897
      8 C7         -1.9956   -0.7665    3.6249 C.ar      1 <0>        -0.0774
      9 C8         -3.2912   -1.2506    3.6329 C.ar      1 <0>        -0.1499
     10 C9         -3.9505   -1.4899    2.4414 C.ar      1 <0>        -0.0393
     11 C10        -3.3190   -1.2401    1.2386 C.ar      1 <0>        -0.1681
     12 C11        -5.3617   -2.0184    2.4550 C.3       1 <0>         0.1056
     13 O1         -6.2802   -0.9237    2.4673 O.3       1 <0>        -0.3085
     14 C12        -7.6046   -1.2294    2.4805 C.ar      1 <0>         0.1315
     15 C13        -8.2933   -1.3886    1.2863 C.ar      1 <0>        -0.1013
     16 C14        -9.6401   -1.7000    1.3027 C.ar      1 <0>        -0.0656
     17 C15       -10.3010   -1.8525    2.5075 C.ar      1 <0>        -0.0544
     18 C16        -9.6175   -1.6941    3.6988 C.ar      1 <0>        -0.0653
     19 C17        -8.2693   -1.3887    3.6883 C.ar      1 <0>        -0.1014
     20 Br1        -7.3335   -1.1800    5.3182 Br        1 <0>        -0.0339
     21 C18       -11.7693   -2.1915    2.5221 C.3       1 <0>        -0.0605
     22 C19       -11.9417   -3.7117    2.5273 C.3       1 <0>        -0.1770
     23 C20       -13.4100   -4.0507    2.5419 C.2       1 <0>         0.4905
     24 O2        -14.2415   -3.1591    2.5477 O.co2     1 <0>        -0.6970
     25 O3        -13.7664   -5.2167    2.5480 O.co2     1 <0>        -0.7033
     26 Br2        -7.3905   -1.1790   -0.3620 Br        1 <0>        -0.0364
     27 H1          1.0039    1.9031    0.0027 H         1 <0>         0.0620
     28 H2         -0.5459    1.8868   -0.8726 H         1 <0>         0.0554
     29 H3         -0.5289    1.8773    0.9072 H         1 <0>         0.0593
     30 H4          0.5123   -0.3556   -0.8948 H         1 <0>         0.0712
     31 H5          0.5293   -0.3651    0.8851 H         1 <0>         0.0742
     32 H6         -3.1417   -0.6062   -1.1097 H         1 <0>         0.0758
     33 H7         -1.7041   -0.0678   -2.0105 H         1 <0>         0.0715
     34 H8         -0.7458   -2.3488   -1.8443 H         1 <0>         0.0546
     35 H9         -2.1835   -2.8871   -0.9434 H         1 <0>         0.0593
     36 H10        -2.3362   -2.3807   -2.6429 H         1 <0>         0.0633
     37 H11        -0.3443   -0.1431    2.4205 H         1 <0>         0.1203
     38 H12        -1.4834   -0.5810    4.5574 H         1 <0>         0.1208
     39 H13        -3.7889   -1.4426    4.5720 H         1 <0>         0.1194
     40 H14        -3.8362   -1.4227    0.3082 H         1 <0>         0.1233
     41 H15        -5.5312   -2.6248    1.5653 H         1 <0>         0.0637
     42 H16        -5.5124   -2.6291    3.3451 H         1 <0>         0.0660
     43 H17       -10.1765   -1.8239    0.3736 H         1 <0>         0.1439
     44 H18       -10.1364   -1.8134    4.6385 H         1 <0>         0.1442
     45 H19       -12.2305   -1.7705    3.4156 H         1 <0>         0.0792
     46 H20       -12.2473   -1.7746    1.6357 H         1 <0>         0.0790
     47 H21       -11.4805   -4.1327    1.6338 H         1 <0>         0.0590
     48 H22       -11.4637   -4.1286    3.4137 H         1 <0>         0.0591
@<TRIPOS>BOND
     1    1    2 1
     2    1   27 1
     3    1   28 1
     4    1   29 1
     5    2    3 1
     6    2   30 1
     7    2   31 1
     8    3    4 1
     9    3    6 1
    10    4    5 1
    11    4   32 1
    12    4   33 1
    13    5   34 1
    14    5   35 1
    15    5   36 1
    16    6   11 ar
    17    6    7 ar
    18    7    8 ar
    19    7   37 1
    20    8    9 ar
    21    8   38 1
    22    9   10 ar
    23    9   39 1
    24   10   11 ar
    25   10   12 1
    26   11   40 1
    27   12   13 1
    28   12   41 1
    29   12   42 1
    30   13   14 1
    31   14   19 ar
    32   14   15 ar
    33   15   16 ar
    34   15   26 1
    35   16   17 ar
    36   16   43 1
    37   17   18 ar
    38   17   21 1
    39   18   19 ar
    40   18   44 1
    41   19   20 1
    42   21   22 1
    43   21   45 1
    44   21   46 1
    45   22   23 1
    46   22   47 1
    47   22   48 1
    48   23   24 2
    49   23   25 1
@<TRIPOS>MOLECULE
CHEMBL125946
   63    68     0     0     0
SMALL
USER_CHARGES

@<TRIPOS>ATOM
      1 C1         -0.1112    1.2061    0.9653 C.ar      1 <0>        -0.1194
      2 C2          1.0271    1.8220    1.4482 C.ar      1 <0>        -0.1178
      3 C3          2.2353    1.1413    1.4523 C.ar      1 <0>         0.1876
      4 C4          2.3012   -0.1581    0.9708 C.ar      1 <0>        -0.6715
      5 C5          1.1635   -0.7739    0.4875 C.ar      1 <0>        -0.0244
      6 C6         -0.0456   -0.0933    0.4843 C.ar      1 <0>         0.0961
      7 O1         -1.1659   -0.6998    0.0093 O.3       1 <0>        -0.2340
      8 C7         -2.3285    0.0048    0.0248 C.ar      1 <0>         0.1043
      9 C8         -3.1590   -0.0507    1.1362 C.ar      1 <0>        -0.0257
     10 C9         -4.3404    0.6652    1.1522 C.ar      1 <0>        -0.0791
     11 C10        -4.6975    1.4405    0.0565 C.ar      1 <0>         0.1868
     12 C11        -3.8665    1.4958   -1.0552 C.ar      1 <0>        -0.0735
     13 C12        -2.6824    0.7842   -1.0684 C.ar      1 <0>        -0.0223
     14 Cl1        -1.6404    0.8589   -2.4548 Cl        1 <0>        -0.0144
     15 N1         -5.8953    2.1659    0.0723 N.am      1 <0>        -0.4043
     16 C13        -6.7346    2.0840   -0.9754 C.2       1 <0>         0.6842
     17 O2         -6.4421    1.3811   -1.9234 O.2       1 <0>        -0.5098
     18 N2         -7.8939    2.7682   -0.9901 N.am      1 <0>        -0.6530
     19 H1         -8.4885    2.6980   -1.7533 H         1 <0>         0.4403
     20 C14        -8.2295    3.5510    0.0561 C.2       1 <0>         0.5165
     21 O3         -9.2764    4.1720    0.0502 O.2       1 <0>        -0.4657
     22 C15        -7.3185    3.6442    1.1997 C.2       1 <0>         0.0695
     23 N3         -6.2060    2.9623    1.1809 N.2       1 <0>        -0.1686
     24 Cl2        -2.7129   -1.0201    2.5055 Cl        1 <0>        -0.0167
     25 S1          3.8365   -1.0226    0.9755 S.o2      1 <0>         2.7230
     26 O4          4.3874   -0.8649    2.2758 O.2       1 <0>        -0.9480
     27 O5          3.5855   -2.2992    0.4042 O.2       1 <0>        -0.9509
     28 N4          4.8481   -0.2288   -0.0662 N.pl3     1 <0>        -1.0035
     29 C16         5.0400   -0.4526   -1.5178 C.3       1 <0>         0.1559
     30 C17         6.5728   -0.3984   -1.7034 C.3       1 <0>        -0.1303
     31 C18         7.0529    0.5643   -0.5971 C.3       1 <0>        -0.1351
     32 C19         5.7856    0.8818    0.2251 C.3       1 <0>         0.1648
     33 C20         5.1464    2.1627   -0.3146 C.3       1 <0>        -0.1403
     34 C21         4.8562    2.0752   -1.8068 C.3       1 <0>         0.1282
     35 C22         4.3953    0.7049   -2.2752 C.3       1 <0>        -0.1328
     36 C23         6.0947    2.5251   -2.6085 C.3       1 <0>        -0.1520
     37 C24         5.4625    3.3502   -3.7641 C.3       1 <0>        -0.1590
     38 C25         4.2801    4.0188   -3.0190 C.3       1 <0>         0.0498
     39 O6          3.8053    3.0219   -2.1040 O.3       1 <0>        -0.3777
     40 O7          3.3557    1.7477    1.9277 O.3       1 <0>        -0.4911
     41 H2         -1.0530    1.7347    0.9663 H         1 <0>         0.1348
     42 H3          0.9761    2.8339    1.8224 H         1 <0>         0.1444
     43 H4          1.2149   -1.7852    0.1121 H         1 <0>         0.1580
     44 H5         -4.9866    0.6218    2.0166 H         1 <0>         0.1599
     45 H6         -4.1439    2.0986   -1.9073 H         1 <0>         0.1574
     46 H7         -7.5663    4.2646    2.0482 H         1 <0>         0.2341
     47 H8          4.6343   -1.4226   -1.8293 H         1 <0>         0.1078
     48 H9          7.0040   -1.3907   -1.5479 H         1 <0>         0.0749
     49 H10         6.8353   -0.0303   -2.6895 H         1 <0>         0.0835
     50 H11         7.7975    0.0708    0.0318 H         1 <0>         0.0740
     51 H12         7.4731    1.4700   -1.0288 H         1 <0>         0.0841
     52 H13         6.0049    0.9536    1.2950 H         1 <0>         0.1078
     53 H14         4.2104    2.3532    0.2235 H         1 <0>         0.1003
     54 H15         5.8178    3.0083   -0.1262 H         1 <0>         0.0726
     55 H16         4.6184    0.6008   -3.3468 H         1 <0>         0.0768
     56 H17         3.3032    0.6400   -2.1687 H         1 <0>         0.0742
     57 H18         6.7428    3.1554   -1.9979 H         1 <0>         0.0787
     58 H19         6.6450    1.6754   -3.0045 H         1 <0>         0.0891
     59 H20         6.1615    4.0947   -4.1435 H         1 <0>         0.0818
     60 H21         5.1082    2.6996   -4.5628 H         1 <0>         0.0769
     61 H22         4.6239    4.9007   -2.4780 H         1 <0>         0.0578
     62 H23         3.4954    4.2928   -3.7248 H         1 <0>         0.0799
     63 H24         3.5034    1.6148    2.8741 H         1 <0>         0.4051
@<TRIPOS>BOND
     1    1    6 ar
     2    1    2 ar
     3    1   41 1
     4    2    3 ar
     5    2   42 1
     6    3    4 ar
     7    3   40 1
     8    4    5 ar
     9    4   25 1
    10    5    6 ar
    11    5   43 1
    12    6    7 1
    13    7    8 1
    14    8   13 ar
    15    8    9 ar
    16    9   10 ar
    17    9   24 1
    18   10   11 ar
    19   10   44 1
    20   11   12 ar
    21   11   15 1
    22   12   13 ar
    23   12   45 1
    24   13   14 1
    25   15   23 1
    26   15   16 am
    27   16   17 2
    28   16   18 am
    29   18   19 1
    30   18   20 am
    31   20   21 2
    32   20   22 1
    33   22   23 2
    34   22   46 1
    35   25   26 2
    36   25   27 2
    37   25   28 1
    38   28   32 1
    39   28   29 1
    40   29   35 1
    41   29   30 1
    42   29   47 1
    43   30   31 1
    44   30   48 1
    45   30   49 1
    46   31   32 1
    47   31   50 1
    48   31   51 1
    49   32   33 1
    50   32   52 1
    51   33   34 1
    52   33   53 1
    53   33   54 1
    54   34   39 1
    55   34   35 1
    56   34   36 1
    57   35   55 1
    58   35   56 1
    59   36   37 1
    60   36   57 1
    61   36   58 1
    62   37   38 1
    63   37   59 1
    64   37   60 1
    65   38   39 1
    66   38   61 1
    67   38   62 1
    68   40   63 1
@<TRIPOS>MOLECULE
CHEMBL125946__1
   62    67     0     0     0
SMALL
USER_CHARGES

@<TRIPOS>ATOM
      1 C1         -0.1120    1.2048    0.9687 C.ar      1 <0>        -0.1177
      2 C2          1.0259    1.8200    1.4535 C.ar      1 <0>        -0.1168
      3 C3          2.2342    1.1392    1.4576 C.ar      1 <0>         0.1793
      4 C4          2.3004   -0.1595    0.9744 C.ar      1 <0>        -0.6723
      5 C5          1.1630   -0.7748    0.4897 C.ar      1 <0>        -0.0307
      6 C6         -0.0460   -0.0939    0.4859 C.ar      1 <0>         0.1038
      7 O1         -1.1658   -0.6997    0.0091 O.3       1 <0>        -0.2323
      8 C7         -2.3283    0.0048    0.0247 C.ar      1 <0>         0.0791
      9 C8         -3.1598   -0.0522    1.1354 C.ar      1 <0>        -0.0228
     10 C9         -4.3412    0.6636    1.1514 C.ar      1 <0>        -0.0911
     11 C10        -4.6972    1.4408    0.0565 C.ar      1 <0>         0.2021
     12 C11        -3.8649    1.4980   -1.0544 C.ar      1 <0>        -0.0725
     13 C12        -2.6813    0.7858   -1.0679 C.ar      1 <0>        -0.0194
     14 Cl1        -1.6383    0.8620   -2.4536 Cl        1 <0>        -0.0306
     15 N1         -5.8943    2.1658    0.0722 N.am      1 <0>        -0.3716
     16 C13        -6.7300    2.0806   -0.9784 C.2       1 <0>         0.6175
     17 O2         -6.4369    1.3754   -1.9298 O.2       1 <0>        -0.5684
     18 N2         -7.8789    2.7626   -0.9872 N.2       1 <0>        -0.6228
     19 C14        -8.1852    3.5249    0.0537 C.2       1 <0>         0.4332
     20 O3         -9.3398    4.2275    0.0769 O.3       1 <0>        -0.6440
     21 C15        -7.2824    3.5885    1.1376 C.2       1 <0>         0.0087
     22 N3         -6.1753    2.8960    1.0937 N.2       1 <0>        -0.2232
     23 Cl2        -2.7149   -1.0236    2.5037 Cl        1 <0>        -0.0347
     24 S1          3.8358   -1.0238    0.9786 S.o2      1 <0>         2.7248
     25 O4          4.3861   -0.8679    2.2794 O.2       1 <0>        -0.9513
     26 O5          3.5852   -2.2997    0.4054 O.2       1 <0>        -0.9531
     27 N4          4.8478   -0.2285   -0.0614 N.pl3     1 <0>        -1.0040
     28 C16         5.0404   -0.4502   -1.5133 C.3       1 <0>         0.1563
     29 C17         6.5733   -0.3956   -1.6981 C.3       1 <0>        -0.1297
     30 C18         7.0528    0.5656   -0.5901 C.3       1 <0>        -0.1344
     31 C19         5.7851    0.8819    0.2318 C.3       1 <0>         0.1653
     32 C20         5.1460    2.1634   -0.3064 C.3       1 <0>        -0.1410
     33 C21         4.8566    2.0780   -1.7989 C.3       1 <0>         0.1281
     34 C22         4.3960    0.7083   -2.2694 C.3       1 <0>        -0.1341
     35 C23         6.0954    2.5291   -2.5993 C.3       1 <0>        -0.1512
     36 C24         5.4637    3.3558   -3.7540 C.3       1 <0>        -0.1588
     37 C25         4.2808    4.0233   -3.0086 C.3       1 <0>         0.0494
     38 O6          3.8056    3.0250   -2.0952 O.3       1 <0>        -0.3753
     39 O7          3.3541    1.7450    1.9349 O.3       1 <0>        -0.4924
     40 H1         -1.0538    1.7333    0.9696 H         1 <0>         0.1381
     41 H2          0.9746    2.8313    1.8290 H         1 <0>         0.1428
     42 H3          1.2147   -1.7857    0.1132 H         1 <0>         0.1559
     43 H4         -4.9882    0.6186    2.0150 H         1 <0>         0.1552
     44 H5         -4.1415    2.1020   -1.9060 H         1 <0>         0.1571
     45 H6         -7.5070    4.2019    1.9976 H         1 <0>         0.1839
     46 H7          4.6351   -1.4198   -1.8264 H         1 <0>         0.1075
     47 H8          7.0046   -1.3880   -1.5437 H         1 <0>         0.0735
     48 H9          6.8363   -0.0261   -2.6835 H         1 <0>         0.0827
     49 H10         7.7971    0.0713    0.0384 H         1 <0>         0.0724
     50 H11         7.4731    1.4720   -1.0204 H         1 <0>         0.0832
     51 H12         6.0039    0.9521    1.3020 H         1 <0>         0.1069
     52 H13         4.2097    2.3530    0.2316 H         1 <0>         0.1022
     53 H14         5.8172    3.0089   -0.1164 H         1 <0>         0.0713
     54 H15         4.6197    0.6057   -3.3410 H         1 <0>         0.0761
     55 H16         3.3039    0.6431   -2.1635 H         1 <0>         0.0765
     56 H17         6.7431    3.1587   -1.9875 H         1 <0>         0.0777
     57 H18         6.6460    1.6801   -2.9962 H         1 <0>         0.0881
     58 H19         6.1627    4.1008   -4.1320 H         1 <0>         0.0805
     59 H20         5.1098    2.7063   -4.5538 H         1 <0>         0.0769
     60 H21         4.6242    4.9044   -2.4662 H         1 <0>         0.0573
     61 H22         3.4964    4.2981   -3.7144 H         1 <0>         0.0808
     62 H23         3.5010    1.6107    2.8812 H         1 <0>         0.4018
@<TRIPOS>BOND
     1    1    6 ar
     2    1    2 ar
     3    1   40 1
     4    2    3 ar
     5    2   41 1
     6    3    4 ar
     7    3   39 1
     8    4    5 ar
     9    4   24 1
    10    5    6 ar
    11    5   42 1
    12    6    7 1
    13    7    8 1
    14    8   13 ar
    15    8    9 ar
    16    9   10 ar
    17    9   23 1
    18   10   11 ar
    19   10   43 1
    20   11   12 ar
    21   11   15 1
    22   12   13 ar
    23   12   44 1
    24   13   14 1
    25   15   22 1
    26   15   16 am
    27   16   17 2
    28   16   18 1
    29   18   19 2
    30   19   20 1
    31   19   21 1
    32   21   22 2
    33   21   45 1
    34   24   25 2
    35   24   26 2
    36   24   27 1
    37   27   31 1
    38   27   28 1
    39   28   34 1
    40   28   29 1
    41   28   46 1
    42   29   30 1
    43   29   47 1
    44   29   48 1
    45   30   31 1
    46   30   49 1
    47   30   50 1
    48   31   32 1
    49   31   51 1
    50   32   33 1
    51   32   52 1
    52   32   53 1
    53   33   38 1
    54   33   34 1
    55   33   35 1
    56   34   54 1
    57   34   55 1
    58   35   36 1
    59   35   56 1
    60   35   57 1
    61   36   37 1
    62   36   58 1
    63   36   59 1
    64   37   38 1
    65   37   60 1
    66   37   61 1
    67   39   62 1
@<TRIPOS>MOLECULE
CHEMBL125946__2
   62    67     0     0     0
SMALL
USER_CHARGES

@<TRIPOS>ATOM
      1 C1         -0.1112    1.2061    0.9653 C.ar      1 <0>        -0.0898
      2 C2          1.0271    1.8220    1.4482 C.ar      1 <0>        -0.2152
      3 C3          2.2353    1.1413    1.4523 C.ar      1 <0>         0.3372
      4 C4          2.3012   -0.1581    0.9708 C.ar      1 <0>        -0.7929
      5 C5          1.1635   -0.7739    0.4875 C.ar      1 <0>         0.0142
      6 C6         -0.0456   -0.0933    0.4843 C.ar      1 <0>        -0.0380
      7 O1         -1.1659   -0.6998    0.0093 O.3       1 <0>        -0.2518
      8 C7         -2.3285    0.0048    0.0248 C.ar      1 <0>         0.1443
      9 C8         -3.1590   -0.0507    1.1362 C.ar      1 <0>        -0.0346
     10 C9         -4.3404    0.6652    1.1522 C.ar      1 <0>        -0.0793
     11 C10        -4.6975    1.4405    0.0565 C.ar      1 <0>         0.1597
     12 C11        -3.8665    1.4958   -1.0552 C.ar      1 <0>        -0.0734
     13 C12        -2.6824    0.7842   -1.0684 C.ar      1 <0>        -0.0310
     14 Cl1        -1.6404    0.8589   -2.4548 Cl        1 <0>        -0.0203
     15 N1         -5.8953    2.1659    0.0723 N.am      1 <0>        -0.3951
     16 C13        -6.7346    2.0840   -0.9754 C.2       1 <0>         0.6817
     17 O2         -6.4421    1.3811   -1.9234 O.2       1 <0>        -0.5104
     18 N2         -7.8939    2.7682   -0.9901 N.am      1 <0>        -0.6538
     19 H1         -8.4885    2.6980   -1.7533 H         1 <0>         0.4373
     20 C14        -8.2295    3.5510    0.0561 C.2       1 <0>         0.5195
     21 O3         -9.2764    4.1720    0.0502 O.2       1 <0>        -0.4767
     22 C15        -7.3185    3.6442    1.1997 C.2       1 <0>         0.0548
     23 N3         -6.2060    2.9623    1.1809 N.2       1 <0>        -0.1601
     24 Cl2        -2.7129   -1.0201    2.5055 Cl        1 <0>        -0.0217
     25 S1          3.8365   -1.0226    0.9755 S.o2      1 <0>         2.7333
     26 O4          4.3874   -0.8649    2.2758 O.2       1 <0>        -0.9605
     27 O5          3.5855   -2.2992    0.4042 O.2       1 <0>        -0.9961
     28 N4          4.8481   -0.2288   -0.0662 N.pl3     1 <0>        -1.0021
     29 C16         5.0400   -0.4526   -1.5178 C.3       1 <0>         0.1567
     30 C17         6.5728   -0.3984   -1.7034 C.3       1 <0>        -0.1286
     31 C18         7.0529    0.5643   -0.5971 C.3       1 <0>        -0.1359
     32 C19         5.7856    0.8818    0.2251 C.3       1 <0>         0.1762
     33 C20         5.1464    2.1627   -0.3146 C.3       1 <0>        -0.1486
     34 C21         4.8562    2.0752   -1.8068 C.3       1 <0>         0.1326
     35 C22         4.3953    0.7049   -2.2752 C.3       1 <0>        -0.1282
     36 C23         6.0947    2.5251   -2.6085 C.3       1 <0>        -0.1505
     37 C24         5.4625    3.3502   -3.7641 C.3       1 <0>        -0.1584
     38 C25         4.2801    4.0188   -3.0190 C.3       1 <0>         0.0498
     39 O6          3.8053    3.0219   -2.1040 O.3       1 <0>        -0.3723
     40 O7          3.3557    1.7477    1.9277 O.3       1 <0>        -0.6795
     41 H2         -1.0530    1.7347    0.9663 H         1 <0>         0.0976
     42 H3          0.9761    2.8339    1.8224 H         1 <0>         0.1073
     43 H4          1.2149   -1.7852    0.1121 H         1 <0>         0.1212
     44 H5         -4.9866    0.6218    2.0166 H         1 <0>         0.1520
     45 H6         -4.1439    2.0986   -1.9073 H         1 <0>         0.1495
     46 H7         -7.5663    4.2646    2.0482 H         1 <0>         0.2309
     47 H8          4.6343   -1.4226   -1.8293 H         1 <0>         0.0995
     48 H9          7.0040   -1.3907   -1.5479 H         1 <0>         0.0672
     49 H10         6.8353   -0.0303   -2.6895 H         1 <0>         0.0752
     50 H11         7.7975    0.0708    0.0318 H         1 <0>         0.0655
     51 H12         7.4731    1.4700   -1.0288 H         1 <0>         0.0763
     52 H13         6.0049    0.9536    1.2950 H         1 <0>         0.1042
     53 H14         4.2104    2.3532    0.2235 H         1 <0>         0.1243
     54 H15         5.8178    3.0083   -0.1262 H         1 <0>         0.0572
     55 H16         4.6184    0.6008   -3.3468 H         1 <0>         0.0645
     56 H17         3.3032    0.6400   -2.1687 H         1 <0>         0.0766
     57 H18         6.7428    3.1554   -1.9979 H         1 <0>         0.0753
     58 H19         6.6450    1.6754   -3.0045 H         1 <0>         0.0855
     59 H20         6.1615    4.0947   -4.1435 H         1 <0>         0.0757
     60 H21         5.1082    2.6996   -4.5628 H         1 <0>         0.0739
     61 H22         4.6239    4.9007   -2.4780 H         1 <0>         0.0535
     62 H23         3.4954    4.2928   -3.7248 H         1 <0>         0.0747
@<TRIPOS>BOND
     1    1    6 ar
     2    1    2 ar
     3    1   41 1
     4    2    3 ar
     5    2   42 1
     6    3    4 ar
     7    3   40 1
     8    4    5 ar
     9    4   25 1
    10    5    6 ar
    11    5   43 1
    12    6    7 1
    13    7    8 1
    14    8   13 ar
    15    8    9 ar
    16    9   10 ar
    17    9   24 1
    18   10   11 ar
    19   10   44 1
    20   11   12 ar
    21   11   15 1
    22   12   13 ar
    23   12   45 1
    24   13   14 1
    25   15   23 1
    26   15   16 am
    27   16   17 2
    28   16   18 am
    29   18   19 1
    30   18   20 am
    31   20   21 2
    32   20   22 1
    33   22   23 2
    34   22   46 1
    35   25   26 2
    36   25   27 2
    37   25   28 1
    38   28   32 1
    39   28   29 1
    40   29   35 1
    41   29   30 1
    42   29   47 1
    43   30   31 1
    44   30   48 1
    45   30   49 1
    46   31   32 1
    47   31   50 1
    48   31   51 1
    49   32   33 1
    50   32   52 1
    51   33   34 1
    52   33   53 1
    53   33   54 1
    54   34   39 1
    55   34   35 1
    56   34   36 1
    57   35   55 1
    58   35   56 1
    59   36   37 1
    60   36   57 1
    61   36   58 1
    62   37   38 1
    63   37   59 1
    64   37   60 1
    65   38   39 1
    66   38   61 1
    67   38   62 1
@<TRIPOS>MOLECULE
CHEMBL124205
   60    64     0     0     0
SMALL
USER_CHARGES

@<TRIPOS>ATOM
      1 C1          0.3884    1.6768    0.0469 C.3       1 <0>        -0.1289
      2 C2          0.1147    0.1715    0.0439 C.3       1 <0>        -0.0741
      3 C3          1.0079   -0.6215   -0.9290 C.3       1 <0>        -0.1056
      4 C4          0.4612   -2.0425   -1.1536 C.3       1 <0>        -0.1073
      5 C5          0.7051   -2.8555    0.1259 C.3       1 <0>        -0.1321
      6 C6          0.2690   -2.0126    1.3329 C.3       1 <0>         0.1586
      7 C7          0.8464   -0.5963    1.1611 C.3       1 <0>        -0.1167
      8 C8          2.0559   -0.6089    0.2033 C.3       1 <0>        -0.1377
      9 N1          0.7852   -2.6109    2.5665 N.am      1 <0>        -0.7217
     10 C9          0.0986   -3.5979    3.1754 C.2       1 <0>         0.5620
     11 O1         -0.9493   -3.9918    2.7009 O.2       1 <0>        -0.5140
     12 C10         0.6185   -4.2005    4.4178 C.ar      1 <0>        -0.1288
     13 C11         1.8192   -3.7466    4.9692 C.ar      1 <0>        -0.0912
     14 C12         2.3001   -4.3157    6.1340 C.ar      1 <0>         0.1063
     15 C13         1.5923   -5.3371    6.7566 C.ar      1 <0>        -0.1466
     16 C14         0.4054   -5.7913    6.2184 C.ar      1 <0>        -0.1124
     17 C15        -0.0924   -5.2267    5.0535 C.ar      1 <0>         0.1447
     18 O2         -1.2624   -5.6707    4.5281 O.3       1 <0>        -0.4735
     19 O3          3.4687   -3.8752    6.6714 O.3       1 <0>        -0.2358
     20 C16         3.9055   -4.4621    7.8174 C.ar      1 <0>         0.1065
     21 C17         3.5195   -3.9514    9.0495 C.ar      1 <0>        -0.0250
     22 C18         3.9632   -4.5476   10.2142 C.ar      1 <0>        -0.0792
     23 C19         4.7954   -5.6579   10.1524 C.ar      1 <0>         0.1867
     24 C20         5.1813   -6.1686    8.9197 C.ar      1 <0>        -0.0739
     25 C21         4.7328   -5.5755    7.7554 C.ar      1 <0>        -0.0223
     26 Cl1         5.2088   -6.2183    6.2147 Cl        1 <0>        -0.0169
     27 N2          5.2456   -6.2622   11.3328 N.am      1 <0>        -0.4044
     28 C22         6.5535   -6.5388   11.4797 C.2       1 <0>         0.6842
     29 O4          7.3286   -6.2602   10.5852 O.2       1 <0>        -0.5104
     30 N3          7.0176   -7.1192   12.6022 N.am      1 <0>        -0.6531
     31 H1          7.9640   -7.3119   12.6926 H         1 <0>         0.4402
     32 C23         6.1674   -7.4327   13.6017 C.2       1 <0>         0.5165
     33 O5          6.5798   -7.9573   14.6197 O.2       1 <0>        -0.4656
     34 C24         4.7416   -7.1334   13.4467 C.2       1 <0>         0.0697
     35 N4          4.3292   -6.5651   12.3469 N.2       1 <0>        -0.1683
     36 Cl2         2.4799   -2.5633    9.1266 Cl        1 <0>        -0.0164
     37 C25        -1.3738   -0.1655   -0.0651 C.3       1 <0>        -0.1498
     38 H2          1.4560    1.8522   -0.0859 H         1 <0>         0.0591
     39 H3         -0.1614    2.1477   -0.7680 H         1 <0>         0.0602
     40 H4          0.0656    2.1028    0.9969 H         1 <0>         0.0586
     41 H5          1.2937   -0.0943   -1.8392 H         1 <0>         0.0841
     42 H6         -0.6076   -1.9969   -1.3625 H         1 <0>         0.0759
     43 H7          0.9809   -2.5087   -1.9906 H         1 <0>         0.0690
     44 H8          0.1212   -3.7752    0.0918 H         1 <0>         0.0699
     45 H9          1.7651   -3.0949    0.2107 H         1 <0>         0.0694
     46 H10        -0.8191   -1.9639    1.3740 H         1 <0>         0.1002
     47 H11         0.9816   -0.0504    2.0948 H         1 <0>         0.0882
     48 H12         2.6539   -1.5184    0.2604 H         1 <0>         0.0727
     49 H13         2.6557    0.3005    0.2387 H         1 <0>         0.0843
     50 H14         1.6212   -2.2966    2.9451 H         1 <0>         0.3989
     51 H15         2.3707   -2.9533    4.4865 H         1 <0>         0.1411
     52 H16         1.9733   -5.7778    7.6660 H         1 <0>         0.1327
     53 H17        -0.1392   -6.5853    6.7077 H         1 <0>         0.1434
     54 H18        -1.1604   -6.3993    3.9006 H         1 <0>         0.3950
     55 H19         3.6633   -4.1501   11.1725 H         1 <0>         0.1596
     56 H20         5.8284   -7.0320    8.8714 H         1 <0>         0.1571
     57 H21         4.0425   -7.3757   14.2335 H         1 <0>         0.2342
     58 H22        -1.7730    0.2479   -0.9912 H         1 <0>         0.0582
     59 H23        -1.5022   -1.2479   -0.0653 H         1 <0>         0.0680
     60 H24        -1.9065    0.2635    0.7836 H         1 <0>         0.0564
@<TRIPOS>BOND
     1    1    2 1
     2    1   38 1
     3    1   39 1
     4    1   40 1
     5    2    7 1
     6    2    3 1
     7    2   37 1
     8    3    8 1
     9    3    4 1
    10    3   41 1
    11    4    5 1
    12    4   42 1
    13    4   43 1
    14    5    6 1
    15    5   44 1
    16    5   45 1
    17    6    7 1
    18    6    9 1
    19    6   46 1
    20    7    8 1
    21    7   47 1
    22    8   48 1
    23    8   49 1
    24    9   10 am
    25    9   50 1
    26   10   11 2
    27   10   12 1
    28   12   17 ar
    29   12   13 ar
    30   13   14 ar
    31   13   51 1
    32   14   15 ar
    33   14   19 1
    34   15   16 ar
    35   15   52 1
    36   16   17 ar
    37   16   53 1
    38   17   18 1
    39   18   54 1
    40   19   20 1
    41   20   25 ar
    42   20   21 ar
    43   21   22 ar
    44   21   36 1
    45   22   23 ar
    46   22   55 1
    47   23   24 ar
    48   23   27 1
    49   24   25 ar
    50   24   56 1
    51   25   26 1
    52   27   35 1
    53   27   28 am
    54   28   29 2
    55   28   30 am
    56   30   31 1
    57   30   32 am
    58   32   33 2
    59   32   34 1
    60   34   35 2
    61   34   57 1
    62   37   58 1
    63   37   59 1
    64   37   60 1
@<TRIPOS>MOLECULE
CHEMBL124205__1
   59    63     0     0     0
SMALL
USER_CHARGES

@<TRIPOS>ATOM
      1 C1          0.3918    1.6771    0.0461 C.3       1 <0>        -0.1284
      2 C2          0.1152    0.1723    0.0435 C.3       1 <0>        -0.0746
      3 C3          1.0068   -0.6227   -0.9291 C.3       1 <0>        -0.1052
      4 C4          0.4574   -2.0427   -1.1532 C.3       1 <0>        -0.1066
      5 C5          0.6997   -2.8557    0.1266 C.3       1 <0>        -0.1328
      6 C6          0.2652   -2.0116    1.3333 C.3       1 <0>         0.1593
      7 C7          0.8453   -0.5965    1.1610 C.3       1 <0>        -0.1165
      8 C8          2.0548   -0.6118    0.2032 C.3       1 <0>        -0.1380
      9 N1          0.7802   -2.6105    2.5671 N.am      1 <0>        -0.7232
     10 C9          0.0917   -3.5960    3.1763 C.2       1 <0>         0.5649
     11 O1         -0.9570   -3.9880    2.7018 O.2       1 <0>        -0.5182
     12 C10         0.6103   -4.1992    4.4189 C.ar      1 <0>        -0.1327
     13 C11         1.8119   -3.7475    4.9701 C.ar      1 <0>        -0.0966
     14 C12         2.2920   -4.3174    6.1348 C.ar      1 <0>         0.1134
     15 C13         1.5827   -5.3379    6.7573 C.ar      1 <0>        -0.1442
     16 C14         0.3948   -5.7899    6.2192 C.ar      1 <0>        -0.1121
     17 C15        -0.1026   -5.2238    5.0549 C.ar      1 <0>         0.1376
     18 O2         -1.2739   -5.6651    4.5301 O.3       1 <0>        -0.4749
     19 O3          3.4612   -3.8788    6.6724 O.3       1 <0>        -0.2341
     20 C16         3.8970   -4.4665    7.8181 C.ar      1 <0>         0.0813
     21 C17         3.5118   -3.9553    9.0505 C.ar      1 <0>        -0.0221
     22 C18         3.9544   -4.5522   10.2149 C.ar      1 <0>        -0.0911
     23 C19         4.7851   -5.6640   10.1530 C.ar      1 <0>         0.2018
     24 C20         5.1703   -6.1752    8.9201 C.ar      1 <0>        -0.0729
     25 C21         4.7227   -5.5812    7.7560 C.ar      1 <0>        -0.0195
     26 Cl1         5.1983   -6.2241    6.2151 Cl        1 <0>        -0.0330
     27 N2          5.2341   -6.2688   11.3327 N.am      1 <0>        -0.3717
     28 C22         6.5433   -6.5434   11.4752 C.2       1 <0>         0.6175
     29 O4          7.3219   -6.2637   10.5787 O.2       1 <0>        -0.5688
     30 N3          6.9968   -7.1200   12.5919 N.2       1 <0>        -0.6231
     31 C23         6.1395   -7.4187   13.5584 C.2       1 <0>         0.4332
     32 O5          6.5655   -8.0020   14.7010 O.3       1 <0>        -0.6438
     33 C24         4.7731   -7.1154   13.3715 C.2       1 <0>         0.0088
     34 N4          4.3871   -6.5459   12.2607 N.2       1 <0>        -0.2230
     35 Cl2         2.4742   -2.5656    9.1277 Cl        1 <0>        -0.0345
     36 C25        -1.3739   -0.1618   -0.0654 C.3       1 <0>        -0.1493
     37 H1          1.4597    1.8504   -0.0868 H         1 <0>         0.0590
     38 H2         -0.1570    2.1488   -0.7690 H         1 <0>         0.0590
     39 H3          0.0698    2.1041    0.9958 H         1 <0>         0.0587
     40 H4          1.2937   -0.0964   -1.8395 H         1 <0>         0.0830
     41 H5         -0.6113   -1.9951   -1.3622 H         1 <0>         0.0750
     42 H6          0.9762   -2.5102   -1.9901 H         1 <0>         0.0681
     43 H7          0.1140   -3.7744    0.0928 H         1 <0>         0.0699
     44 H8          1.7592   -3.0973    0.2115 H         1 <0>         0.0699
     45 H9         -0.8228   -1.9608    1.3743 H         1 <0>         0.0991
     46 H10         0.9815   -0.0505    2.0945 H         1 <0>         0.0887
     47 H11         2.6511   -1.5225    0.2607 H         1 <0>         0.0734
     48 H12         2.6564    0.2965    0.2383 H         1 <0>         0.0840
     49 H13         1.6168   -2.2978    2.9456 H         1 <0>         0.3998
     50 H14         2.3648   -2.9551    4.4874 H         1 <0>         0.1388
     51 H15         1.9631   -5.7796    7.6665 H         1 <0>         0.1361
     52 H16        -0.1510   -6.5832    6.7084 H         1 <0>         0.1419
     53 H17        -1.1739   -6.3939    3.9025 H         1 <0>         0.3917
     54 H18         3.6551   -4.1544   11.1733 H         1 <0>         0.1549
     55 H19         5.8164   -7.0393    8.8716 H         1 <0>         0.1569
     56 H20         4.0535   -7.3479   14.1425 H         1 <0>         0.1840
     57 H21        -1.7723    0.2520   -0.9918 H         1 <0>         0.0568
     58 H22        -1.5045   -1.2439   -0.0651 H         1 <0>         0.0684
     59 H23        -1.9059    0.2686    0.7831 H         1 <0>         0.0562
@<TRIPOS>BOND
     1    1    2 1
     2    1   37 1
     3    1   38 1
     4    1   39 1
     5    2    7 1
     6    2    3 1
     7    2   36 1
     8    3    8 1
     9    3    4 1
    10    3   40 1
    11    4    5 1
    12    4   41 1
    13    4   42 1
    14    5    6 1
    15    5   43 1
    16    5   44 1
    17    6    7 1
    18    6    9 1
    19    6   45 1
    20    7    8 1
    21    7   46 1
    22    8   47 1
    23    8   48 1
    24    9   10 am
    25    9   49 1
    26   10   11 2
    27   10   12 1
    28   12   17 ar
    29   12   13 ar
    30   13   14 ar
    31   13   50 1
    32   14   15 ar
    33   14   19 1
    34   15   16 ar
    35   15   51 1
    36   16   17 ar
    37   16   52 1
    38   17   18 1
    39   18   53 1
    40   19   20 1
    41   20   25 ar
    42   20   21 ar
    43   21   22 ar
    44   21   35 1
    45   22   23 ar
    46   22   54 1
    47   23   24 ar
    48   23   27 1
    49   24   25 ar
    50   24   55 1
    51   25   26 1
    52   27   34 1
    53   27   28 am
    54   28   29 2
    55   28   30 1
    56   30   31 2
    57   31   32 1
    58   31   33 1
    59   33   34 2
    60   33   56 1
    61   36   57 1
    62   36   58 1
    63   36   59 1
@<TRIPOS>MOLECULE
CHEMBL124205__2
   60    64     0     0     0
SMALL
USER_CHARGES

@<TRIPOS>ATOM
      1 C1          2.6260    1.3617    1.5339 C.3       1 <0>        -0.1430
      2 C2          2.6728   -0.0405    2.1443 C.3       1 <0>        -0.0745
      3 C3          2.0048   -1.1211    1.2730 C.3       1 <0>        -0.1062
      4 C4          0.7951   -0.5518    0.5108 C.3       1 <0>        -0.1132
      5 C5         -0.3363   -0.3132    1.5210 C.3       1 <0>        -0.1319
      6 C6          0.2451    0.4037    2.7480 C.3       1 <0>         0.1661
      7 C7          1.5425   -0.3180    3.1535 C.3       1 <0>        -0.1139
      8 C8          1.5628   -1.7602    2.6058 C.3       1 <0>        -0.1337
      9 N1          0.5394    1.7990    2.4123 N.am      1 <0>        -0.7197
     10 C9          0.8395    2.6782    3.3888 C.2       1 <0>         0.5610
     11 O1          0.8659    2.3133    4.5483 O.2       1 <0>        -0.5112
     12 C10         1.1358    4.0835    3.0507 C.ar      1 <0>        -0.1282
     13 C11         1.1007    4.5078    1.7201 C.ar      1 <0>        -0.0921
     14 C12         1.3791    5.8264    1.4108 C.ar      1 <0>         0.1071
     15 C13         1.6934    6.7294    2.4195 C.ar      1 <0>        -0.1471
     16 C14         1.7302    6.3183    3.7366 C.ar      1 <0>        -0.1122
     17 C15         1.4482    5.0002    4.0630 C.ar      1 <0>         0.1443
     18 O2          1.4796    4.5984    5.3590 O.3       1 <0>        -0.4732
     19 O3          1.3458    6.2406    0.1162 O.3       1 <0>        -0.2358
     20 C16         1.6259    7.5453   -0.1439 C.ar      1 <0>         0.1066
     21 C17         0.6046    8.4860   -0.1535 C.ar      1 <0>        -0.0250
     22 C18         0.8889    9.8118   -0.4178 C.ar      1 <0>        -0.0793
     23 C19         2.1966   10.2039   -0.6738 C.ar      1 <0>         0.1866
     24 C20         3.2181    9.2627   -0.6641 C.ar      1 <0>        -0.0740
     25 C21         2.9340    7.9379   -0.3942 C.ar      1 <0>        -0.0223
     26 Cl1         4.2116    6.7628   -0.3745 Cl        1 <0>        -0.0166
     27 N2          2.4850   11.5477   -0.9422 N.am      1 <0>        -0.4044
     28 C22         3.2421   11.8640   -2.0078 C.2       1 <0>         0.6842
     29 O4          3.6662   10.9785   -2.7250 O.2       1 <0>        -0.5104
     30 N3          3.5371   13.1462   -2.2926 N.am      1 <0>        -0.6532
     31 H1          4.0842   13.3576   -3.0652 H         1 <0>         0.4402
     32 C23         3.0719   14.1375   -1.5045 C.2       1 <0>         0.5165
     33 O5          3.3343   15.2992   -1.7560 O.2       1 <0>        -0.4655
     34 C24         2.2468   13.7983   -0.3424 C.2       1 <0>         0.0696
     35 N4          1.9768   12.5447   -0.1009 N.2       1 <0>        -0.1683
     36 Cl2        -1.0299    7.9958    0.1660 Cl        1 <0>        -0.0166
     37 C25         4.0636   -0.4252    2.6527 C.3       1 <0>        -0.1278
     38 H2          2.5654    2.1030    2.3307 H         1 <0>         0.0588
     39 H3          3.5281    1.5326    0.9465 H         1 <0>         0.0421
     40 H4          1.7510    1.4485    0.8897 H         1 <0>         0.0665
     41 H5          2.6837   -1.7210    0.6669 H         1 <0>         0.0822
     42 H6          1.0694    0.3903    0.0360 H         1 <0>         0.0740
     43 H7          0.4683   -1.2646   -0.2463 H         1 <0>         0.0706
     44 H8         -1.1081    0.3077    1.0661 H         1 <0>         0.0724
     45 H9         -0.7637   -1.2690    1.8241 H         1 <0>         0.0864
     46 H10        -0.4698    0.3652    3.5699 H         1 <0>         0.0864
     47 H11         1.8118   -0.2014    4.2033 H         1 <0>         0.0884
     48 H12         0.5801   -2.2300    2.5649 H         1 <0>         0.0725
     49 H13         2.3217   -2.3949    3.0634 H         1 <0>         0.0833
     50 H14         0.5183    2.0902    1.4873 H         1 <0>         0.4017
     51 H15         0.8571    3.8074    0.9349 H         1 <0>         0.1390
     52 H16         1.9102    7.7580    2.1715 H         1 <0>         0.1326
     53 H17         1.9752    7.0255    4.5151 H         1 <0>         0.1431
     54 H18         2.3451    4.2817    5.6517 H         1 <0>         0.3947
     55 H19         0.0944   10.5434   -0.4256 H         1 <0>         0.1595
     56 H20         4.2349    9.5673   -0.8632 H         1 <0>         0.1570
     57 H21         1.8637   14.5751    0.3028 H         1 <0>         0.2342
     58 H22         4.3060    0.1698    3.5332 H         1 <0>         0.0567
     59 H23         4.0748   -1.4832    2.9148 H         1 <0>         0.0581
     60 H24         4.8008   -0.2364    1.8723 H         1 <0>         0.0569
@<TRIPOS>BOND
     1    1    2 1
     2    1   38 1
     3    1   39 1
     4    1   40 1
     5    2    7 1
     6    2    3 1
     7    2   37 1
     8    3    8 1
     9    3    4 1
    10    3   41 1
    11    4    5 1
    12    4   42 1
    13    4   43 1
    14    5    6 1
    15    5   44 1
    16    5   45 1
    17    6    7 1
    18    6    9 1
    19    6   46 1
    20    7    8 1
    21    7   47 1
    22    8   48 1
    23    8   49 1
    24    9   10 am
    25    9   50 1
    26   10   11 2
    27   10   12 1
    28   12   17 ar
    29   12   13 ar
    30   13   14 ar
    31   13   51 1
    32   14   15 ar
    33   14   19 1
    34   15   16 ar
    35   15   52 1
    36   16   17 ar
    37   16   53 1
    38   17   18 1
    39   18   54 1
    40   19   20 1
    41   20   25 ar
    42   20   21 ar
    43   21   22 ar
    44   21   36 1
    45   22   23 ar
    46   22   55 1
    47   23   24 ar
    48   23   27 1
    49   24   25 ar
    50   24   56 1
    51   25   26 1
    52   27   35 1
    53   27   28 am
    54   28   29 2
    55   28   30 am
    56   30   31 1
    57   30   32 am
    58   32   33 2
    59   32   34 1
    60   34   35 2
    61   34   57 1
    62   37   58 1
    63   37   59 1
    64   37   60 1
@<TRIPOS>MOLECULE
CHEMBL124205__3
   59    63     0     0     0
SMALL
USER_CHARGES

@<TRIPOS>ATOM
      1 C1          2.6254    1.3627    1.5378 C.3       1 <0>        -0.1441
      2 C2          2.6718   -0.0392    2.1488 C.3       1 <0>        -0.0744
      3 C3          2.0055   -1.1204    1.2770 C.3       1 <0>        -0.1058
      4 C4          0.7967   -0.5518    0.5127 C.3       1 <0>        -0.1137
      5 C5         -0.3363   -0.3132    1.5212 C.3       1 <0>        -0.1315
      6 C6          0.2431    0.4044    2.7487 C.3       1 <0>         0.1665
      7 C7          1.5401   -0.3166    3.1565 C.3       1 <0>        -0.1135
      8 C8          1.5616   -1.7591    2.6095 C.3       1 <0>        -0.1336
      9 N1          0.5374    1.7997    2.4129 N.am      1 <0>        -0.7212
     10 C9          0.8357    2.6794    3.3894 C.2       1 <0>         0.5639
     11 O1          0.8605    2.3150    4.5492 O.2       1 <0>        -0.5155
     12 C10         1.1321    4.0846    3.0512 C.ar      1 <0>        -0.1322
     13 C11         1.0989    4.5083    1.7204 C.ar      1 <0>        -0.0975
     14 C12         1.3779    5.8268    1.4109 C.ar      1 <0>         0.1142
     15 C13         1.6912    6.7301    2.4197 C.ar      1 <0>        -0.1446
     16 C14         1.7262    6.3196    3.7369 C.ar      1 <0>        -0.1119
     17 C15         1.4426    5.0019    4.0636 C.ar      1 <0>         0.1372
     18 O2          1.4714    4.6008    5.3599 O.3       1 <0>        -0.4746
     19 O3          1.3459    6.2406    0.1161 O.3       1 <0>        -0.2341
     20 C16         1.6265    7.5450   -0.1441 C.ar      1 <0>         0.0814
     21 C17         0.6053    8.4859   -0.1551 C.ar      1 <0>        -0.0221
     22 C18         0.8900    9.8115   -0.4195 C.ar      1 <0>        -0.0913
     23 C19         2.1983   10.2033   -0.6744 C.ar      1 <0>         0.2019
     24 C20         3.2197    9.2618   -0.6633 C.ar      1 <0>        -0.0730
     25 C21         2.9351    7.9373   -0.3932 C.ar      1 <0>        -0.0195
     26 Cl1         4.2124    6.7618   -0.3723 Cl        1 <0>        -0.0327
     27 N2          2.4870   11.5462   -0.9428 N.am      1 <0>        -0.3717
     28 C22         3.2444   11.8566   -2.0103 C.2       1 <0>         0.6175
     29 O4          3.6698   10.9682   -2.7301 O.2       1 <0>        -0.5689
     30 N3          3.5338   13.1311   -2.2880 N.2       1 <0>        -0.6230
     31 C23         3.0650   14.0867   -1.4973 C.2       1 <0>         0.4332
     32 O5          3.3387   15.3861   -1.7503 O.3       1 <0>        -0.6439
     33 C24         2.2739   13.7212   -0.3862 C.2       1 <0>         0.0088
     34 N4          2.0183   12.4589   -0.1663 N.2       1 <0>        -0.2230
     35 Cl2        -1.0296    7.9961    0.1628 Cl        1 <0>        -0.0346
     36 C25         4.0620   -0.4233    2.6595 C.3       1 <0>        -0.1273
     37 H1          2.5634    2.1043    2.3342 H         1 <0>         0.0604
     38 H2          3.5284    1.5336    0.9517 H         1 <0>         0.0427
     39 H3          1.7514    1.4489    0.8922 H         1 <0>         0.0669
     40 H4          2.6855   -1.7204    0.6722 H         1 <0>         0.0814
     41 H5          1.0714    0.3902    0.0380 H         1 <0>         0.0755
     42 H6          0.4713   -1.2651   -0.2445 H         1 <0>         0.0697
     43 H7         -1.1076    0.3073    1.0648 H         1 <0>         0.0726
     44 H8         -0.7638   -1.2690    1.8241 H         1 <0>         0.0848
     45 H9         -0.4731    0.3660    3.5696 H         1 <0>         0.0850
     46 H10         1.8077   -0.1995    4.2066 H         1 <0>         0.0878
     47 H11         0.5791   -2.2292    2.5672 H         1 <0>         0.0715
     48 H12         2.3200   -2.3933    3.0685 H         1 <0>         0.0820
     49 H13         0.5176    2.0905    1.4877 H         1 <0>         0.4025
     50 H14         0.8563    3.8077    0.9352 H         1 <0>         0.1367
     51 H15         1.9089    7.7585    2.1715 H         1 <0>         0.1359
     52 H16         1.9704    7.0271    4.5155 H         1 <0>         0.1416
     53 H17         2.3362    4.2841    5.6545 H         1 <0>         0.3913
     54 H18         0.0957   10.5431   -0.4285 H         1 <0>         0.1548
     55 H19         4.2368    9.5660   -0.8617 H         1 <0>         0.1568
     56 H20         1.8794   14.4794    0.2740 H         1 <0>         0.1840
     57 H21         4.3029    0.1722    3.5401 H         1 <0>         0.0569
     58 H22         4.0731   -1.4811    2.9221 H         1 <0>         0.0567
     59 H23         4.8003   -0.2346    1.8802 H         1 <0>         0.0570
@<TRIPOS>BOND
     1    1    2 1
     2    1   37 1
     3    1   38 1
     4    1   39 1
     5    2    7 1
     6    2    3 1
     7    2   36 1
     8    3    8 1
     9    3    4 1
    10    3   40 1
    11    4    5 1
    12    4   41 1
    13    4   42 1
    14    5    6 1
    15    5   43 1
    16    5   44 1
    17    6    7 1
    18    6    9 1
    19    6   45 1
    20    7    8 1
    21    7   46 1
    22    8   47 1
    23    8   48 1
    24    9   10 am
    25    9   49 1
    26   10   11 2
    27   10   12 1
    28   12   17 ar
    29   12   13 ar
    30   13   14 ar
    31   13   50 1
    32   14   15 ar
    33   14   19 1
    34   15   16 ar
    35   15   51 1
    36   16   17 ar
    37   16   52 1
    38   17   18 1
    39   18   53 1
    40   19   20 1
    41   20   25 ar
    42   20   21 ar
    43   21   22 ar
    44   21   35 1
    45   22   23 ar
    46   22   54 1
    47   23   24 ar
    48   23   27 1
    49   24   25 ar
    50   24   55 1
    51   25   26 1
    52   27   34 1
    53   27   28 am
    54   28   29 2
    55   28   30 1
    56   30   31 2
    57   31   32 1
    58   31   33 1
    59   33   34 2
    60   33   56 1
    61   36   57 1
    62   36   58 1
    63   36   59 1
@<TRIPOS>MOLECULE
CHEMBL124205__4
   60    64     0     0     0
SMALL
USER_CHARGES

@<TRIPOS>ATOM
      1 C1         -0.8120    1.1102    3.0108 C.3       1 <0>        -0.1439
      2 C2         -0.4116   -0.3212    3.3736 C.3       1 <0>        -0.0737
      3 C3         -0.7456   -1.3563    2.2828 C.3       1 <0>        -0.1065
      4 C4         -0.5982   -0.7493    0.8762 C.3       1 <0>        -0.1133
      5 C5          0.8990   -0.5629    0.5913 C.3       1 <0>        -0.1317
      6 C6          1.5535    0.0909    1.8168 C.3       1 <0>         0.1664
      7 C7          1.0631   -0.6500    3.0734 C.3       1 <0>        -0.1147
      8 C8          0.5562   -2.0625    2.7152 C.3       1 <0>        -0.1334
      9 N1          1.1654    1.5016    1.8912 N.am      1 <0>        -0.7196
     10 C9          1.8067    2.3333    2.7359 C.2       1 <0>         0.5606
     11 O1          2.7074    1.9128    3.4362 O.2       1 <0>        -0.5114
     12 C10         1.4159    3.7540    2.8109 C.ar      1 <0>        -0.1283
     13 C11         0.3777    4.2396    2.0121 C.ar      1 <0>        -0.0922
     14 C12         0.0165    5.5721    2.0880 C.ar      1 <0>         0.1071
     15 C13         0.6833    6.4285    2.9563 C.ar      1 <0>        -0.1470
     16 C14         1.7101    5.9567    3.7488 C.ar      1 <0>        -0.1123
     17 C15         2.0802    4.6215    3.6877 C.ar      1 <0>         0.1444
     18 O2          3.0866    4.1577    4.4714 O.3       1 <0>        -0.4732
     19 O3         -0.9934    6.0461    1.3108 O.3       1 <0>        -0.2358
     20 C16        -1.3164    7.3625    1.4167 C.ar      1 <0>         0.1067
     21 C17        -2.2679    7.7716    2.3415 C.ar      1 <0>        -0.0250
     22 C18        -2.5962    9.1092    2.4493 C.ar      1 <0>        -0.0793
     23 C19        -1.9744   10.0448    1.6325 C.ar      1 <0>         0.1867
     24 C20        -1.0226    9.6353    0.7075 C.ar      1 <0>        -0.0740
     25 C21        -0.6905    8.2983    0.6040 C.ar      1 <0>        -0.0223
     26 Cl1         0.5047    7.7874   -0.5467 Cl        1 <0>        -0.0169
     27 N2         -2.3074   11.4007    1.7413 N.am      1 <0>        -0.4044
     28 C22        -2.5953   12.1044    0.6319 C.2       1 <0>         0.6843
     29 O4         -2.5632   11.5537   -0.4516 O.2       1 <0>        -0.5104
     30 N3         -2.9190   13.4092    0.7031 N.am      1 <0>        -0.6532
     31 H1         -3.1244   13.9025   -0.1064 H         1 <0>         0.4402
     32 C23        -2.9585   14.0310    1.8997 C.2       1 <0>         0.5165
     33 O5         -3.2507   15.2104    1.9719 O.2       1 <0>        -0.4656
     34 C24        -2.6456   13.2690    3.1113 C.2       1 <0>         0.0696
     35 N4         -2.3417   12.0045    3.0039 N.2       1 <0>        -0.1683
     36 Cl2        -3.0455    6.6020    3.3619 Cl        1 <0>        -0.0162
     37 C25        -0.8628   -0.7308    4.7770 C.3       1 <0>        -0.1282
     38 H2         -0.7989    1.2275    1.9272 H         1 <0>         0.0656
     39 H3         -1.8150    1.3132    3.3861 H         1 <0>         0.0423
     40 H4         -0.1073    1.8097    3.4604 H         1 <0>         0.0604
     41 H5         -1.6625   -1.9244    2.4399 H         1 <0>         0.0822
     42 H6         -1.0324   -1.4229    0.1373 H         1 <0>         0.0705
     43 H7         -1.1033    0.2158    0.8370 H         1 <0>         0.0740
     44 H8          1.3595   -1.5330    0.4045 H         1 <0>         0.0863
     45 H9          1.0285    0.0801   -0.2793 H         1 <0>         0.0722
     46 H10         2.6379    0.0104    1.7417 H         1 <0>         0.0863
     47 H11         1.7407   -0.5868    3.9248 H         1 <0>         0.0886
     48 H12         0.4361   -2.7193    3.5767 H         1 <0>         0.0833
     49 H13         1.0981   -2.5299    1.8930 H         1 <0>         0.0722
     50 H14         0.4469    1.8371    1.3326 H         1 <0>         0.4019
     51 H15        -0.1414    3.5757    1.3366 H         1 <0>         0.1390
     52 H16         0.3968    7.4683    3.0108 H         1 <0>         0.1325
     53 H17         2.2237    6.6279    4.4212 H         1 <0>         0.1431
     54 H18         3.9616    4.2176    4.0643 H         1 <0>         0.3948
     55 H19        -3.3366    9.4273    3.1684 H         1 <0>         0.1595
     56 H20        -0.5389   10.3627    0.0723 H         1 <0>         0.1570
     57 H21        -2.6705   13.7459    4.0799 H         1 <0>         0.2341
     58 H22        -1.9216   -0.5022    4.8995 H         1 <0>         0.0568
     59 H23        -0.7041   -1.8007    4.9119 H         1 <0>         0.0579
     60 H24        -0.2843   -0.1812    5.5196 H         1 <0>         0.0576
@<TRIPOS>BOND
     1    1    2 1
     2    1   38 1
     3    1   39 1
     4    1   40 1
     5    2    7 1
     6    2    3 1
     7    2   37 1
     8    3    8 1
     9    3    4 1
    10    3   41 1
    11    4    5 1
    12    4   42 1
    13    4   43 1
    14    5    6 1
    15    5   44 1
    16    5   45 1
    17    6    7 1
    18    6    9 1
    19    6   46 1
    20    7    8 1
    21    7   47 1
    22    8   48 1
    23    8   49 1
    24    9   10 am
    25    9   50 1
    26   10   11 2
    27   10   12 1
    28   12   17 ar
    29   12   13 ar
    30   13   14 ar
    31   13   51 1
    32   14   15 ar
    33   14   19 1
    34   15   16 ar
    35   15   52 1
    36   16   17 ar
    37   16   53 1
    38   17   18 1
    39   18   54 1
    40   19   20 1
    41   20   25 ar
    42   20   21 ar
    43   21   22 ar
    44   21   36 1
    45   22   23 ar
    46   22   55 1
    47   23   24 ar
    48   23   27 1
    49   24   25 ar
    50   24   56 1
    51   25   26 1
    52   27   35 1
    53   27   28 am
    54   28   29 2
    55   28   30 am
    56   30   31 1
    57   30   32 am
    58   32   33 2
    59   32   34 1
    60   34   35 2
    61   34   57 1
    62   37   58 1
    63   37   59 1
    64   37   60 1
@<TRIPOS>MOLECULE
CHEMBL124205__5
   59    63     0     0     0
SMALL
USER_CHARGES

@<TRIPOS>ATOM
      1 C1         -0.8152    1.1096    3.0094 C.3       1 <0>        -0.1449
      2 C2         -0.4155   -0.3220    3.3724 C.3       1 <0>        -0.0737
      3 C3         -0.7477   -1.3567    2.2806 C.3       1 <0>        -0.1060
      4 C4         -0.5980   -0.7492    0.8745 C.3       1 <0>        -0.1137
      5 C5          0.8997   -0.5628    0.5922 C.3       1 <0>        -0.1314
      6 C6          1.5522    0.0906    1.8190 C.3       1 <0>         0.1668
      7 C7          1.0596   -0.6507    3.0745 C.3       1 <0>        -0.1142
      8 C8          0.5533   -2.0631    2.7150 C.3       1 <0>        -0.1333
      9 N1          1.1641    1.5013    1.8933 N.am      1 <0>        -0.7212
     10 C9          1.8040    2.3326    2.7394 C.2       1 <0>         0.5636
     11 O1          2.7034    1.9117    3.4411 O.2       1 <0>        -0.5156
     12 C10         1.4131    3.7533    2.8142 C.ar      1 <0>        -0.1323
     13 C11         0.3763    4.2392    2.0137 C.ar      1 <0>        -0.0976
     14 C12         0.0155    5.5719    2.0891 C.ar      1 <0>         0.1142
     15 C13         0.6814    6.4281    2.9582 C.ar      1 <0>        -0.1446
     16 C14         1.7067    5.9560    3.7524 C.ar      1 <0>        -0.1120
     17 C15         2.0759    4.6205    3.6925 C.ar      1 <0>         0.1374
     18 O2          3.0803    4.1561    4.4784 O.3       1 <0>        -0.4746
     19 O3         -0.9933    6.0461    1.3106 O.3       1 <0>        -0.2341
     20 C16        -1.3160    7.3625    1.4161 C.ar      1 <0>         0.0814
     21 C17        -2.2687    7.7719    2.3397 C.ar      1 <0>        -0.0221
     22 C18        -2.5967    9.1095    2.4470 C.ar      1 <0>        -0.0913
     23 C19        -1.9735   10.0451    1.6309 C.ar      1 <0>         0.2019
     24 C20        -1.0204    9.6352    0.7070 C.ar      1 <0>        -0.0729
     25 C21        -0.6887    8.2982    0.6040 C.ar      1 <0>        -0.0195
     26 Cl1         0.5074    7.7867   -0.5455 Cl        1 <0>        -0.0330
     27 N2         -2.3060   11.4003    1.7391 N.am      1 <0>        -0.3717
     28 C22        -2.5935   12.0990    0.6262 C.2       1 <0>         0.6174
     29 O4         -2.5615   11.5464   -0.4611 O.2       1 <0>        -0.5690
     30 N3         -2.9143   13.3938    0.7031 N.2       1 <0>        -0.6230
     31 C23        -2.9452   13.9818    1.8912 C.2       1 <0>         0.4332
     32 O5         -3.2663   15.2900    2.0041 O.3       1 <0>        -0.6438
     33 C24        -2.6368   13.2152    3.0363 C.2       1 <0>         0.0088
     34 N4         -2.3355   11.9510    2.9016 N.2       1 <0>        -0.2230
     35 Cl2        -3.0478    6.6026    3.3591 Cl        1 <0>        -0.0342
     36 C25        -0.8691   -0.7320    4.7749 C.3       1 <0>        -0.1276
     37 H1         -0.8003    1.2273    1.9258 H         1 <0>         0.0661
     38 H2         -1.8188    1.3125    3.3831 H         1 <0>         0.0427
     39 H3         -0.1112    1.8089    3.4605 H         1 <0>         0.0621
     40 H4         -1.6649   -1.9248    2.4360 H         1 <0>         0.0813
     41 H5         -1.0309   -1.4225    0.1347 H         1 <0>         0.0696
     42 H6         -1.1030    0.2159    0.8348 H         1 <0>         0.0754
     43 H7          1.3605   -1.5329    0.4058 H         1 <0>         0.0847
     44 H8          1.0307    0.0805   -0.2780 H         1 <0>         0.0725
     45 H9          2.6367    0.0100    1.7457 H         1 <0>         0.0851
     46 H10         1.7358   -0.5879    3.9271 H         1 <0>         0.0880
     47 H11         0.4317   -2.7202    3.5761 H         1 <0>         0.0820
     48 H12         1.0966   -2.5303    1.8936 H         1 <0>         0.0713
     49 H13         0.4466    1.8370    1.3335 H         1 <0>         0.4027
     50 H14        -0.1418    3.5756    1.3373 H         1 <0>         0.1367
     51 H15         0.3954    7.4681    3.0120 H         1 <0>         0.1359
     52 H16         2.2197    6.6271    4.4254 H         1 <0>         0.1415
     53 H17         3.9563    4.2155    4.0733 H         1 <0>         0.3915
     54 H18        -3.3379    9.4278    3.1652 H         1 <0>         0.1547
     55 H19        -0.5360   10.3622    0.0721 H         1 <0>         0.1568
     56 H20        -2.6545   13.6691    4.0161 H         1 <0>         0.1840
     57 H21        -1.9280   -0.5035    4.8957 H         1 <0>         0.0569
     58 H22        -0.7107   -1.8020    4.9097 H         1 <0>         0.0565
     59 H23        -0.2918   -0.1827    5.5186 H         1 <0>         0.0577
@<TRIPOS>BOND
     1    1    2 1
     2    1   37 1
     3    1   38 1
     4    1   39 1
     5    2    7 1
     6    2    3 1
     7    2   36 1
     8    3    8 1
     9    3    4 1
    10    3   40 1
    11    4    5 1
    12    4   41 1
    13    4   42 1
    14    5    6 1
    15    5   43 1
    16    5   44 1
    17    6    7 1
    18    6    9 1
    19    6   45 1
    20    7    8 1
    21    7   46 1
    22    8   47 1
    23    8   48 1
    24    9   10 am
    25    9   49 1
    26   10   11 2
    27   10   12 1
    28   12   17 ar
    29   12   13 ar
    30   13   14 ar
    31   13   50 1
    32   14   15 ar
    33   14   19 1
    34   15   16 ar
    35   15   51 1
    36   16   17 ar
    37   16   52 1
    38   17   18 1
    39   18   53 1
    40   19   20 1
    41   20   25 ar
    42   20   21 ar
    43   21   22 ar
    44   21   35 1
    45   22   23 ar
    46   22   54 1
    47   23   24 ar
    48   23   27 1
    49   24   25 ar
    50   24   55 1
    51   25   26 1
    52   27   34 1
    53   27   28 am
    54   28   29 2
    55   28   30 1
    56   30   31 2
    57   31   32 1
    58   31   33 1
    59   33   34 2
    60   33   56 1
    61   36   57 1
    62   36   58 1
    63   36   59 1
@<TRIPOS>MOLECULE
CHEMBL124205__6
   60    64     0     0     0
SMALL
USER_CHARGES

@<TRIPOS>ATOM
      1 C1          0.4545    1.6509   -0.1836 C.3       1 <0>        -0.1503
      2 C2          0.1575    0.1586   -0.0225 C.3       1 <0>        -0.0741
      3 C3          0.9931   -0.7456   -0.9483 C.3       1 <0>        -0.1055
      4 C4          2.4011   -0.1651   -1.1700 C.3       1 <0>        -0.1078
      5 C5          3.1986   -0.3370    0.1307 C.3       1 <0>        -0.1329
      6 C6          2.3224    0.1178    1.3067 C.3       1 <0>         0.1596
      7 C7          0.9270   -0.5078    1.1336 C.3       1 <0>        -0.1164
      8 C8          0.9918   -1.7509    0.2221 C.3       1 <0>        -0.1380
      9 N1          2.9141   -0.3342    2.5684 N.am      1 <0>        -0.7218
     10 C9          3.8698    0.4039    3.1670 C.2       1 <0>         0.5620
     11 O1          4.2408    1.4449    2.6600 O.2       1 <0>        -0.5139
     12 C10         4.4658   -0.0514    4.4376 C.ar      1 <0>        -0.1288
     13 C11         4.0461   -1.2498    5.0202 C.ar      1 <0>        -0.0911
     14 C12         4.6094   -1.6704    6.2109 C.ar      1 <0>         0.1062
     15 C13         5.5911   -0.9044    6.8286 C.ar      1 <0>        -0.1466
     16 C14         6.0112    0.2808    6.2596 C.ar      1 <0>        -0.1124
     17 C15         5.4594    0.7131    5.0629 C.ar      1 <0>         0.1447
     18 O2          5.8771    1.8762    4.5018 O.3       1 <0>        -0.4736
     19 O3          4.2017   -2.8363    6.7792 O.3       1 <0>        -0.2359
     20 C16         4.7816   -3.2128    7.9498 C.ar      1 <0>         0.1068
     21 C17         5.9288   -3.9948    7.9362 C.ar      1 <0>        -0.0251
     22 C18         6.5183   -4.3775    9.1256 C.ar      1 <0>        -0.0789
     23 C19         5.9631   -3.9799   10.3352 C.ar      1 <0>         0.1866
     24 C20         4.8154   -3.1977   10.3485 C.ar      1 <0>        -0.0737
     25 C21         4.2296   -2.8105    9.1587 C.ar      1 <0>        -0.0224
     26 Cl1         2.7996   -1.8264    9.1752 Cl        1 <0>        -0.0168
     27 N2          6.5601   -4.3681   11.5410 N.am      1 <0>        -0.4046
     28 C22         5.8040   -4.9127   12.5108 C.2       1 <0>         0.6842
     29 O4          4.6112   -5.0615   12.3276 O.2       1 <0>        -0.5104
     30 N3          6.3479   -5.2961   13.6810 N.am      1 <0>        -0.6532
     31 H1          5.7888   -5.6877   14.3702 H         1 <0>         0.4402
     32 C23         7.6703   -5.1366   13.8957 C.2       1 <0>         0.5165
     33 O5          8.1692   -5.4812   14.9512 O.2       1 <0>        -0.4656
     34 C24         8.4984   -4.5438   12.8425 C.2       1 <0>         0.0696
     35 N4          7.9372   -4.1894   11.7191 N.2       1 <0>        -0.1683
     36 Cl2         6.6223   -4.4921    6.4244 Cl        1 <0>        -0.0165
     37 C25        -1.3395   -0.1575   -0.0320 C.3       1 <0>        -0.1287
     38 H2          1.5319    1.8017   -0.2507 H         1 <0>         0.0687
     39 H3         -0.0214    2.0201   -1.0920 H         1 <0>         0.0579
     40 H4          0.0645    2.1939    0.6773 H         1 <0>         0.0560
     41 H5          0.4905   -1.0807   -1.8556 H         1 <0>         0.0841
     42 H6          2.8969   -0.7011   -1.9793 H         1 <0>         0.0692
     43 H7          2.3276    0.8934   -1.4196 H         1 <0>         0.0766
     44 H8          3.4677   -1.3854    0.2591 H         1 <0>         0.0695
     45 H9          4.1012    0.2727    0.0898 H         1 <0>         0.0707
     46 H10         2.2410    1.2048    1.3062 H         1 <0>         0.0993
     47 H11         0.3691   -0.6248    2.0627 H         1 <0>         0.0880
     48 H12         0.1000   -2.3761    0.2652 H         1 <0>         0.0843
     49 H13         1.9174   -2.3188    0.3164 H         1 <0>         0.0728
     50 H14         2.6181   -1.1647    2.9728 H         1 <0>         0.3990
     51 H15         3.2833   -1.8461    4.5419 H         1 <0>         0.1411
     52 H16         6.0270   -1.2381    7.7586 H         1 <0>         0.1327
     53 H17         6.7744    0.8708    6.7452 H         1 <0>         0.1434
     54 H18         5.3773    2.6529    4.7882 H         1 <0>         0.3951
     55 H19         7.4104   -4.9860    9.1150 H         1 <0>         0.1595
     56 H20         4.3835   -2.8884   11.2889 H         1 <0>         0.1569
     57 H21         9.5591   -4.4060   12.9923 H         1 <0>         0.2341
     58 H22        -1.8053    0.3154   -0.8966 H         1 <0>         0.0602
     59 H23        -1.4825   -1.2367   -0.0871 H         1 <0>         0.0591
     60 H24        -1.7971    0.2235    0.8810 H         1 <0>         0.0585
@<TRIPOS>BOND
     1    1    2 1
     2    1   38 1
     3    1   39 1
     4    1   40 1
     5    2    7 1
     6    2    3 1
     7    2   37 1
     8    3    8 1
     9    3    4 1
    10    3   41 1
    11    4    5 1
    12    4   42 1
    13    4   43 1
    14    5    6 1
    15    5   44 1
    16    5   45 1
    17    6    7 1
    18    6    9 1
    19    6   46 1
    20    7    8 1
    21    7   47 1
    22    8   48 1
    23    8   49 1
    24    9   10 am
    25    9   50 1
    26   10   11 2
    27   10   12 1
    28   12   17 ar
    29   12   13 ar
    30   13   14 ar
    31   13   51 1
    32   14   15 ar
    33   14   19 1
    34   15   16 ar
    35   15   52 1
    36   16   17 ar
    37   16   53 1
    38   17   18 1
    39   18   54 1
    40   19   20 1
    41   20   25 ar
    42   20   21 ar
    43   21   22 ar
    44   21   36 1
    45   22   23 ar
    46   22   55 1
    47   23   24 ar
    48   23   27 1
    49   24   25 ar
    50   24   56 1
    51   25   26 1
    52   27   35 1
    53   27   28 am
    54   28   29 2
    55   28   30 am
    56   30   31 1
    57   30   32 am
    58   32   33 2
    59   32   34 1
    60   34   35 2
    61   34   57 1
    62   37   58 1
    63   37   59 1
    64   37   60 1
@<TRIPOS>MOLECULE
CHEMBL124205__7
   59    63     0     0     0
SMALL
USER_CHARGES

@<TRIPOS>ATOM
      1 C1          0.4564    1.6517   -0.1840 C.3       1 <0>        -0.1498
      2 C2          0.1584    0.1597   -0.0226 C.3       1 <0>        -0.0747
      3 C3          0.9933   -0.7453   -0.9482 C.3       1 <0>        -0.1052
      4 C4          2.4016   -0.1658   -1.1704 C.3       1 <0>        -0.1072
      5 C5          3.1992   -0.3379    0.1303 C.3       1 <0>        -0.1336
      6 C6          2.3234    0.1178    1.3063 C.3       1 <0>         0.1603
      7 C7          0.9276   -0.5070    1.1336 C.3       1 <0>        -0.1163
      8 C8          0.9915   -1.7504    0.2224 C.3       1 <0>        -0.1382
      9 N1          2.9151   -0.3343    2.5680 N.am      1 <0>        -0.7233
     10 C9          3.8714    0.4032    3.1663 C.2       1 <0>         0.5649
     11 O1          4.2430    1.4438    2.6590 O.2       1 <0>        -0.5181
     12 C10         4.4672   -0.0521    4.4369 C.ar      1 <0>        -0.1328
     13 C11         4.0468   -1.2501    5.0199 C.ar      1 <0>        -0.0965
     14 C12         4.6097   -1.6706    6.2108 C.ar      1 <0>         0.1134
     15 C13         5.5913   -0.9046    6.8286 C.ar      1 <0>        -0.1442
     16 C14         6.0122    0.2801    6.2593 C.ar      1 <0>        -0.1121
     17 C15         5.4615    0.7118    5.0619 C.ar      1 <0>         0.1376
     18 O2          5.8806    1.8740    4.4999 O.3       1 <0>        -0.4750
     19 O3          4.2015   -2.8363    6.7793 O.3       1 <0>        -0.2342
     20 C16         4.7809   -3.2126    7.9501 C.ar      1 <0>         0.0815
     21 C17         5.9281   -3.9949    7.9370 C.ar      1 <0>        -0.0221
     22 C18         6.5170   -4.3774    9.1265 C.ar      1 <0>        -0.0909
     23 C19         5.9615   -3.9794   10.3360 C.ar      1 <0>         0.2019
     24 C20         4.8138   -3.1967   10.3488 C.ar      1 <0>        -0.0727
     25 C21         4.2286   -2.8098    9.1588 C.ar      1 <0>        -0.0195
     26 Cl1         2.7984   -1.8259    9.1746 Cl        1 <0>        -0.0329
     27 N2          6.5578   -4.3672   11.5415 N.am      1 <0>        -0.3719
     28 C22         5.7966   -4.9118   12.5077 C.2       1 <0>         0.6175
     29 O4          4.5998   -5.0613   12.3239 O.2       1 <0>        -0.5689
     30 N3          6.3421   -5.2905   13.6671 N.2       1 <0>        -0.6230
     31 C23         7.6441   -5.1222   13.8535 C.2       1 <0>         0.4332
     32 O5          8.2276   -5.4950   15.0145 O.3       1 <0>        -0.6439
     33 C24         8.4096   -4.5467   12.8159 C.2       1 <0>         0.0086
     34 N4          7.8236   -4.2002   11.7007 N.2       1 <0>        -0.2229
     35 Cl2         6.6219   -4.4927    6.4255 Cl        1 <0>        -0.0345
     36 C25        -1.3388   -0.1554   -0.0317 C.3       1 <0>        -0.1282
     37 H1          1.5338    1.8017   -0.2522 H         1 <0>         0.0690
     38 H2         -0.0201    2.0212   -1.0920 H         1 <0>         0.0565
     39 H3          0.0677    2.1951    0.6772 H         1 <0>         0.0561
     40 H4          0.4903   -1.0802   -1.8554 H         1 <0>         0.0829
     41 H5          2.8969   -0.7023   -1.9796 H         1 <0>         0.0682
     42 H6          2.3288    0.8927   -1.4201 H         1 <0>         0.0757
     43 H7          3.4676   -1.3865    0.2588 H         1 <0>         0.0699
     44 H8          4.1022    0.2711    0.0891 H         1 <0>         0.0706
     45 H9          2.2428    1.2048    1.3056 H         1 <0>         0.0983
     46 H10         0.3698   -0.6233    2.0628 H         1 <0>         0.0887
     47 H11         0.0992   -2.3749    0.2657 H         1 <0>         0.0840
     48 H12         1.9167   -2.3189    0.3167 H         1 <0>         0.0735
     49 H13         2.6186   -1.1645    2.9727 H         1 <0>         0.3998
     50 H14         3.2837   -1.8462    4.5417 H         1 <0>         0.1388
     51 H15         6.0266   -1.2380    7.7591 H         1 <0>         0.1361
     52 H16         6.7753    0.8701    6.7450 H         1 <0>         0.1419
     53 H17         5.3815    2.6515    4.7856 H         1 <0>         0.3918
     54 H18         7.4091   -4.9861    9.1163 H         1 <0>         0.1548
     55 H19         4.3815   -2.8874   11.2889 H         1 <0>         0.1566
     56 H20         9.4720   -4.3983   12.9413 H         1 <0>         0.1840
     57 H21        -1.8044    0.3176   -0.8963 H         1 <0>         0.0590
     58 H22        -1.4826   -1.2345   -0.0866 H         1 <0>         0.0590
     59 H23        -1.7960    0.2261    0.8813 H         1 <0>         0.0586
@<TRIPOS>BOND
     1    1    2 1
     2    1   37 1
     3    1   38 1
     4    1   39 1
     5    2    7 1
     6    2    3 1
     7    2   36 1
     8    3    8 1
     9    3    4 1
    10    3   40 1
    11    4    5 1
    12    4   41 1
    13    4   42 1
    14    5    6 1
    15    5   43 1
    16    5   44 1
    17    6    7 1
    18    6    9 1
    19    6   45 1
    20    7    8 1
    21    7   46 1
    22    8   47 1
    23    8   48 1
    24    9   10 am
    25    9   49 1
    26   10   11 2
    27   10   12 1
    28   12   17 ar
    29   12   13 ar
    30   13   14 ar
    31   13   50 1
    32   14   15 ar
    33   14   19 1
    34   15   16 ar
    35   15   51 1
    36   16   17 ar
    37   16   52 1
    38   17   18 1
    39   18   53 1
    40   19   20 1
    41   20   25 ar
    42   20   21 ar
    43   21   22 ar
    44   21   35 1
    45   22   23 ar
    46   22   54 1
    47   23   24 ar
    48   23   27 1
    49   24   25 ar
    50   24   55 1
    51   25   26 1
    52   27   34 1
    53   27   28 am
    54   28   29 2
    55   28   30 1
    56   30   31 2
    57   31   32 1
    58   31   33 1
    59   33   34 2
    60   33   56 1
    61   36   57 1
    62   36   58 1
    63   36   59 1
@<TRIPOS>MOLECULE
CHEMBL250880
   41    43     0     0     0
SMALL
USER_CHARGES

@<TRIPOS>ATOM
      1 C1         -0.0187    1.5258    0.0104 C.3       1 <0>        -0.1431
      2 C2          0.0021   -0.0041    0.0020 C.3       1 <0>        -0.0544
      3 C3          0.7182   -0.4975   -1.2568 C.3       1 <0>        -0.1455
      4 C4          0.7309   -0.5033    1.2229 C.ar      1 <0>        -0.0645
      5 C5          2.0491   -0.1481    1.4337 C.ar      1 <0>        -0.1247
      6 C6          2.7199   -0.6072    2.5577 C.ar      1 <0>         0.1231
      7 C7          2.0666   -1.4232    3.4702 C.ar      1 <0>        -0.1776
      8 C8          0.7488   -1.7782    3.2592 C.ar      1 <0>        -0.0996
      9 C9          0.0765   -1.3146    2.1377 C.ar      1 <0>         0.0693
     10 O1         -1.2226   -1.6599    1.9328 O.3       1 <0>        -0.4936
     11 O2          4.0174   -0.2581    2.7651 O.3       1 <0>        -0.2321
     12 C10         4.6353   -0.7310    3.8800 C.ar      1 <0>         0.0277
     13 C11         4.5849    0.0018    5.0657 C.ar      1 <0>         0.0276
     14 C12         5.2051   -0.4618    6.2052 C.ar      1 <0>        -0.1635
     15 C13         5.8909   -1.6733    6.1800 C.ar      1 <0>         0.2372
     16 C14         5.9431   -2.4151    4.9838 C.ar      1 <0>        -0.1993
     17 C15         5.3057   -1.9383    3.8353 C.ar      1 <0>         0.0581
     18 Cl1         5.3613   -2.8532    2.3610 Cl        1 <0>        -0.0015
     19 C16         6.6724   -3.6923    4.9775 C.2       1 <0>         0.4143
     20 O3          6.7459   -4.3697    3.9664 O.2       1 <0>        -0.4818
     21 C17         7.2897   -4.1118    6.1885 C.2       1 <0>        -0.2751
     22 C18         7.1936   -3.3395    7.2999 C.2       1 <0>         0.1408
     23 N1          6.5171   -2.1535    7.3066 N.pl3     1 <0>        -0.5771
     24 H1          6.4769   -1.6367    8.1265 H         1 <0>         0.4299
     25 C19         7.8447   -3.7986    8.5487 C.2       1 <0>         0.5243
     26 O4          8.4556   -4.8570    8.5658 O.co2     1 <0>        -0.6438
     27 O5          7.7711   -3.1190    9.5618 O.co2     1 <0>        -0.6702
     28 Cl2         3.7326    1.5136    5.1059 Cl        1 <0>        -0.0336
     29 H2          1.0039    1.9031    0.0027 H         1 <0>         0.0577
     30 H3         -0.5459    1.8868   -0.8726 H         1 <0>         0.0579
     31 H4         -0.5289    1.8773    0.9072 H         1 <0>         0.0564
     32 H5         -1.0205   -0.3814    0.0098 H         1 <0>         0.0864
     33 H6          1.7408   -0.1202   -1.2645 H         1 <0>         0.0587
     34 H7          0.7330   -1.5874   -1.2628 H         1 <0>         0.0550
     35 H8          0.1910   -0.1364   -2.1398 H         1 <0>         0.0584
     36 H9          2.5576    0.4868    0.7232 H         1 <0>         0.1354
     37 H10         2.5888   -1.7811    4.3452 H         1 <0>         0.1281
     38 H11         0.2404   -2.4136    3.9693 H         1 <0>         0.1315
     39 H12        -1.3375   -2.4752    1.4256 H         1 <0>         0.3839
     40 H13         5.1597    0.1144    7.1175 H         1 <0>         0.1569
     41 H14         7.8339   -5.0441    6.2233 H         1 <0>         0.1624
@<TRIPOS>BOND
     1    1    2 1
     2    1   29 1
     3    1   30 1
     4    1   31 1
     5    2    3 1
     6    2    4 1
     7    2   32 1
     8    3   33 1
     9    3   34 1
    10    3   35 1
    11    4    9 ar
    12    4    5 ar
    13    5    6 ar
    14    5   36 1
    15    6    7 ar
    16    6   11 1
    17    7    8 ar
    18    7   37 1
    19    8    9 ar
    20    8   38 1
    21    9   10 1
    22   10   39 1
    23   11   12 1
    24   12   17 ar
    25   12   13 ar
    26   13   14 ar
    27   13   28 1
    28   14   15 ar
    29   14   40 1
    30   15   23 1
    31   15   16 ar
    32   16   17 ar
    33   16   19 1
    34   17   18 1
    35   19   20 2
    36   19   21 1
    37   21   22 2
    38   21   41 1
    39   22   23 1
    40   22   25 1
    41   23   24 1
    42   25   26 2
    43   25   27 1
@<TRIPOS>MOLECULE
CHEMBL250880__1
   40    42     0     0     0
SMALL
USER_CHARGES

@<TRIPOS>ATOM
      1 C1         -0.0187    1.5258    0.0104 C.3       1 <0>        -0.1414
      2 C2          0.0021   -0.0041    0.0020 C.3       1 <0>        -0.0508
      3 C3          0.7421   -0.5109    1.2415 C.3       1 <0>        -0.1443
      4 C4         -1.4117   -0.5257    0.0127 C.ar      1 <0>        -0.0700
      5 C5         -2.2585   -0.2044    1.0557 C.ar      1 <0>        -0.1381
      6 C6         -3.5600   -0.6842    1.0653 C.ar      1 <0>         0.1381
      7 C7         -4.0111   -1.4868    0.0272 C.ar      1 <0>        -0.1733
      8 C8         -3.1644   -1.8078   -1.0154 C.ar      1 <0>        -0.0999
      9 C9         -1.8644   -1.3235   -1.0275 C.ar      1 <0>         0.0514
     10 O1         -1.0323   -1.6354   -2.0567 O.3       1 <0>        -0.4961
     11 O2         -4.3934   -0.3685    2.0920 O.3       1 <0>        -0.2296
     12 C10        -5.6595   -0.8603    2.0602 C.ar      1 <0>        -0.0364
     13 C11        -6.6740   -0.1251    1.4351 C.ar      1 <0>        -0.0030
     14 C12        -7.9500   -0.5925    1.3875 C.ar      1 <0>        -0.1109
     15 C13        -8.2673   -1.8340    1.9726 C.ar      1 <0>         0.1952
     16 C14        -7.2420   -2.5827    2.6073 C.ar      1 <0>        -0.2169
     17 C15        -5.9326   -2.0809    2.6383 C.ar      1 <0>         0.0803
     18 Cl1        -4.6666   -2.9880    3.4052 Cl        1 <0>        -0.0326
     19 C16        -7.5618   -3.8274    3.1935 C.ar      1 <0>         0.3064
     20 O3         -6.6115   -4.5735    3.8099 O.3       1 <0>        -0.6680
     21 C17        -8.8721   -4.2627    3.1208 C.ar      1 <0>        -0.2987
     22 C18        -9.8295   -3.4684    2.4777 C.ar      1 <0>         0.1419
     23 N1         -9.5125   -2.3067    1.9344 N.ar      1 <0>        -0.5295
     24 C19       -11.2298   -3.9419    2.4044 C.2       1 <0>         0.5350
     25 O4        -11.5390   -5.0148    2.9019 O.co2     1 <0>        -0.6906
     26 O5        -12.0772   -3.2601    1.8465 O.co2     1 <0>        -0.6764
     27 Cl2        -6.2971    1.4068    0.7105 Cl        1 <0>        -0.0824
     28 H1          1.0039    1.9031    0.0027 H         1 <0>         0.0531
     29 H2         -0.5459    1.8868   -0.8726 H         1 <0>         0.0553
     30 H3         -0.5289    1.8773    0.9072 H         1 <0>         0.0579
     31 H4          0.5123   -0.3556   -0.8948 H         1 <0>         0.0823
     32 H5          0.2319   -0.1594    2.1383 H         1 <0>         0.0590
     33 H6          0.7568   -1.6008    1.2356 H         1 <0>         0.0542
     34 H7          1.7647   -0.1336    1.2338 H         1 <0>         0.0537
     35 H8         -1.9072    0.4200    1.8639 H         1 <0>         0.1295
     36 H9         -5.0243   -1.8607    0.0347 H         1 <0>         0.1333
     37 H10        -3.5153   -2.4327   -1.8232 H         1 <0>         0.1264
     38 H11        -0.5229   -2.4458   -1.9190 H         1 <0>         0.3769
     39 H12        -8.7201   -0.0119    0.9015 H         1 <0>         0.1384
     40 H13        -9.1553   -5.2093    3.5569 H         1 <0>         0.1206
@<TRIPOS>BOND
     1    1    2 1
     2    1   28 1
     3    1   29 1
     4    1   30 1
     5    2    3 1
     6    2    4 1
     7    2   31 1
     8    3   32 1
     9    3   33 1
    10    3   34 1
    11    4    9 ar
    12    4    5 ar
    13    5    6 ar
    14    5   35 1
    15    6    7 ar
    16    6   11 1
    17    7    8 ar
    18    7   36 1
    19    8    9 ar
    20    8   37 1
    21    9   10 1
    22   10   38 1
    23   11   12 1
    24   12   17 ar
    25   12   13 ar
    26   13   14 ar
    27   13   27 1
    28   14   15 ar
    29   14   39 1
    30   15   23 ar
    31   15   16 ar
    32   16   17 ar
    33   16   19 ar
    34   17   18 1
    35   19   20 1
    36   19   21 ar
    37   21   22 ar
    38   21   40 1
    39   22   23 ar
    40   22   24 1
    41   24   25 2
    42   24   26 1
@<TRIPOS>MOLECULE
CHEMBL236291
   55    57     0     0     0
SMALL
USER_CHARGES

@<TRIPOS>ATOM
      1 C1         -0.0187    1.5258    0.0104 C.3       1 <0>        -0.1429
      2 C2          0.0021   -0.0041    0.0020 C.3       1 <0>        -0.0541
      3 C3          0.7421   -0.5109    1.2415 C.3       1 <0>        -0.1450
      4 C4         -1.4117   -0.5257    0.0127 C.ar      1 <0>        -0.0663
      5 C5         -2.2586   -0.2044    1.0558 C.ar      1 <0>        -0.1221
      6 C6         -3.5600   -0.6842    1.0654 C.ar      1 <0>         0.1246
      7 C7         -4.0111   -1.4867    0.0273 C.ar      1 <0>        -0.1731
      8 C8         -3.1643   -1.8077   -1.0153 C.ar      1 <0>        -0.0976
      9 C9         -1.8644   -1.3235   -1.0275 C.ar      1 <0>         0.0733
     10 O1         -1.0323   -1.6354   -2.0567 O.3       1 <0>        -0.4931
     11 O2         -4.3934   -0.3684    2.0921 O.3       1 <0>        -0.2425
     12 C10        -5.6599   -0.8604    2.0603 C.ar      1 <0>         0.1289
     13 C11        -6.6714   -0.1378    1.4426 C.ar      1 <0>        -0.0951
     14 C12        -7.9586   -0.6407    1.4119 C.ar      1 <0>        -0.0523
     15 C13        -8.2391   -1.8623    1.9955 C.ar      1 <0>        -0.0380
     16 C14        -7.2337   -2.5842    2.6119 C.ar      1 <0>        -0.0473
     17 C15        -5.9434   -2.0892    2.6404 C.ar      1 <0>        -0.0931
     18 Br1        -4.5673   -3.0815    3.4756 Br        1 <0>        -0.0203
     19 C16        -9.6434   -2.4078    1.9603 C.3       1 <0>        -0.1050
     20 C17        -9.8271   -3.2424    0.7190 C.2       1 <0>         0.5158
     21 O3         -8.9082   -3.3806   -0.0603 O.2       1 <0>        -0.5382
     22 N1        -11.0126   -3.8352    0.4749 N.am      1 <0>        -0.6925
     23 C18       -11.1912   -4.6465   -0.7318 C.3       1 <0>         0.1089
     24 H1        -10.6180   -4.2113   -1.5504 H         1 <0>         0.0919
     25 C19       -12.6514   -4.6800   -1.1031 C.ar      1 <0>        -0.0511
     26 C20       -13.6133   -4.7850   -0.1160 C.ar      1 <0>        -0.1184
     27 C21       -14.9527   -4.8157   -0.4565 C.ar      1 <0>        -0.1201
     28 C22       -15.3302   -4.7409   -1.7843 C.ar      1 <0>        -0.1352
     29 C23       -14.3682   -4.6349   -2.7714 C.ar      1 <0>        -0.1195
     30 C24       -13.0290   -4.5999   -2.4305 C.ar      1 <0>        -0.1043
     31 C25       -10.7072   -6.0495   -0.4700 C.2       1 <0>         0.4999
     32 O4        -10.4268   -6.3958    0.6649 O.co2     1 <0>        -0.6811
     33 O5        -10.5961   -6.8382   -1.3931 O.co2     1 <0>        -0.6867
     34 Br2        -6.2889    1.5334    0.6446 Br        1 <0>        -0.0226
     35 H2          1.0039    1.9031    0.0027 H         1 <0>         0.0577
     36 H3         -0.5459    1.8868   -0.8726 H         1 <0>         0.0566
     37 H4         -0.5289    1.8773    0.9072 H         1 <0>         0.0572
     38 H5          0.5123   -0.3556   -0.8948 H         1 <0>         0.0867
     39 H6          0.7568   -1.6008    1.2356 H         1 <0>         0.0550
     40 H7          1.7647   -0.1336    1.2338 H         1 <0>         0.0582
     41 H8          0.2319   -0.1594    2.1383 H         1 <0>         0.0580
     42 H9         -1.9072    0.4200    1.8639 H         1 <0>         0.1348
     43 H10        -5.0243   -1.8606    0.0348 H         1 <0>         0.1307
     44 H11        -3.5154   -2.4324   -1.8233 H         1 <0>         0.1338
     45 H12        -0.5229   -2.4458   -1.9190 H         1 <0>         0.3846
     46 H13        -8.7460   -0.0787    0.9318 H         1 <0>         0.1461
     47 H14        -7.4559   -3.5380    3.0673 H         1 <0>         0.1497
     48 H15        -9.8157   -3.0251    2.8419 H         1 <0>         0.1119
     49 H16       -10.3541   -1.5814    1.9509 H         1 <0>         0.1071
     50 H17       -11.7476   -3.7247    1.0981 H         1 <0>         0.3924
     51 H18       -13.3185   -4.8434    0.9214 H         1 <0>         0.1194
     52 H19       -15.7043   -4.8984    0.3147 H         1 <0>         0.1179
     53 H20       -16.3766   -4.7655   -2.0504 H         1 <0>         0.1159
     54 H21       -14.6631   -4.5768   -3.8087 H         1 <0>         0.1185
     55 H22       -12.2776   -4.5134   -3.2014 H         1 <0>         0.1220
@<TRIPOS>BOND
     1    1    2 1
     2    1   35 1
     3    1   36 1
     4    1   37 1
     5    2    3 1
     6    2    4 1
     7    2   38 1
     8    3   39 1
     9    3   40 1
    10    3   41 1
    11    4    9 ar
    12    4    5 ar
    13    5    6 ar
    14    5   42 1
    15    6    7 ar
    16    6   11 1
    17    7    8 ar
    18    7   43 1
    19    8    9 ar
    20    8   44 1
    21    9   10 1
    22   10   45 1
    23   11   12 1
    24   12   17 ar
    25   12   13 ar
    26   13   14 ar
    27   13   34 1
    28   14   15 ar
    29   14   46 1
    30   15   16 ar
    31   15   19 1
    32   16   17 ar
    33   16   47 1
    34   17   18 1
    35   19   20 1
    36   19   48 1
    37   19   49 1
    38   20   21 2
    39   20   22 am
    40   22   23 1
    41   22   50 1
    42   23   24 1
    43   23   25 1
    44   23   31 1
    45   25   30 ar
    46   25   26 ar
    47   26   27 ar
    48   26   51 1
    49   27   28 ar
    50   27   52 1
    51   28   29 ar
    52   28   53 1
    53   29   30 ar
    54   29   54 1
    55   30   55 1
    56   31   32 2
    57   31   33 1
@<TRIPOS>MOLECULE
CHEMBL346112
   48    50     0     0     0
SMALL
USER_CHARGES

@<TRIPOS>ATOM
      1 C1         -0.8401    1.3182   -0.1283 C.3       1 <0>        -0.1105
      2 C2         -0.4375   -0.1331   -0.0769 C.ar      1 <0>        -0.0616
      3 C3         -0.4210   -0.8859   -1.2338 C.ar      1 <0>        -0.1249
      4 C4         -0.0497   -2.2241   -1.1861 C.ar      1 <0>         0.1793
      5 C5          0.3046   -2.8032    0.0263 C.ar      1 <0>        -0.1528
      6 C6          0.2875   -2.0489    1.1821 C.ar      1 <0>        -0.0632
      7 C7         -0.0780   -0.7109    1.1327 C.ar      1 <0>         0.0329
      8 O1         -0.0893    0.0327    2.2705 O.3       1 <0>        -0.2419
      9 C8         -1.2382    0.0713    2.9964 C.ar      1 <0>         0.1253
     10 C9         -2.3526   -0.6421    2.5690 C.ar      1 <0>        -0.1580
     11 C10        -3.5237   -0.6095    3.2987 C.ar      1 <0>        -0.1022
     12 C11        -3.5971    0.1365    4.4653 C.ar      1 <0>         0.0973
     13 C12        -2.4772    0.8581    4.9027 C.ar      1 <0>        -0.1404
     14 C13        -1.2934    0.8151    4.1601 C.ar      1 <0>        -0.1027
     15 C14        -2.5461    1.6540    6.1419 C.2       1 <0>         0.4584
     16 O2         -2.0189    1.2439    7.1580 O.2       1 <0>        -0.4361
     17 C15        -3.2556    2.9498    6.1491 C.ar      1 <0>        -0.1565
     18 C16        -3.2418    3.7506    7.2936 C.ar      1 <0>        -0.0482
     19 C17        -3.9059    4.9588    7.2940 C.ar      1 <0>        -0.1261
     20 C18        -4.5859    5.3791    6.1626 C.ar      1 <0>        -0.0036
     21 C19        -4.6038    4.5892    5.0246 C.ar      1 <0>        -0.1239
     22 C20        -3.9383    3.3819    5.0095 C.ar      1 <0>        -0.0401
     23 Cl1        -5.4197    6.9017    6.1711 Cl        1 <0>        -0.0620
     24 O3         -4.7495    0.1685    5.1814 O.3       1 <0>        -0.4908
     25 C21         0.6717   -2.6767    2.4971 C.3       1 <0>        -0.1101
     26 N1         -0.0331   -2.9873   -2.3571 N.am      1 <0>        -0.6653
     27 C22         0.3361   -2.4231   -3.5241 C.2       1 <0>         0.4530
     28 O4          0.5755   -1.2344   -3.5744 O.2       1 <0>        -0.5220
     29 C23         0.4508   -3.2618   -4.7567 C.2       1 <0>         0.4999
     30 O5          0.7851   -2.7509   -5.8134 O.co2     1 <0>        -0.6360
     31 O6          0.2101   -4.4571   -4.7061 O.co2     1 <0>        -0.6647
     32 H1          0.0418    1.9339   -0.3047 H         1 <0>         0.0766
     33 H2         -1.5557    1.4684   -0.9368 H         1 <0>         0.0703
     34 H3         -1.2978    1.6021    0.8193 H         1 <0>         0.0637
     35 H4         -0.6968   -0.4351   -2.1756 H         1 <0>         0.1470
     36 H5          0.5929   -3.8433    0.0642 H         1 <0>         0.1335
     37 H6         -2.3015   -1.2246    1.6610 H         1 <0>         0.1403
     38 H7         -4.3851   -1.1660    2.9600 H         1 <0>         0.1394
     39 H8         -0.4254    1.3649    4.4928 H         1 <0>         0.1404
     40 H9         -2.7122    3.4239    8.1764 H         1 <0>         0.1437
     41 H10        -3.8962    5.5787    8.1784 H         1 <0>         0.1408
     42 H11        -5.1360    4.9222    4.1458 H         1 <0>         0.1414
     43 H12        -3.9489    2.7692    4.1202 H         1 <0>         0.1414
     44 H13        -4.8139   -0.5232    5.8540 H         1 <0>         0.3908
     45 H14         1.7440   -2.5620    2.6550 H         1 <0>         0.0752
     46 H15         0.1307   -2.1857    3.3060 H         1 <0>         0.0645
     47 H16         0.4181   -3.7367    2.4815 H         1 <0>         0.0692
     48 H17        -0.2873   -3.9230   -2.3298 H         1 <0>         0.4193
@<TRIPOS>BOND
     1    1    2 1
     2    1   32 1
     3    1   33 1
     4    1   34 1
     5    2    7 ar
     6    2    3 ar
     7    3    4 ar
     8    3   35 1
     9    4    5 ar
    10    4   26 1
    11    5    6 ar
    12    5   36 1
    13    6    7 ar
    14    6   25 1
    15    7    8 1
    16    8    9 1
    17    9   14 ar
    18    9   10 ar
    19   10   11 ar
    20   10   37 1
    21   11   12 ar
    22   11   38 1
    23   12   13 ar
    24   12   24 1
    25   13   14 ar
    26   13   15 1
    27   14   39 1
    28   15   16 2
    29   15   17 1
    30   17   22 ar
    31   17   18 ar
    32   18   19 ar
    33   18   40 1
    34   19   20 ar
    35   19   41 1
    36   20   21 ar
    37   20   23 1
    38   21   22 ar
    39   21   42 1
    40   22   43 1
    41   24   44 1
    42   25   45 1
    43   25   46 1
    44   25   47 1
    45   26   27 am
    46   26   48 1
    47   27   28 2
    48   27   29 1
    49   29   30 2
    50   29   31 1
@<TRIPOS>MOLECULE
CHEMBL340490
   53    56     0     0     0
SMALL
USER_CHARGES

@<TRIPOS>ATOM
      1 C1         -2.1975    1.1077    0.0712 C.3       1 <0>        -0.1149
      2 C2         -1.2956   -0.0957   -0.0266 C.ar      1 <0>        -0.0608
      3 C3         -1.2789   -0.8538   -1.1805 C.ar      1 <0>        -0.0871
      4 C4         -0.4476   -1.9625   -1.2712 C.ar      1 <0>         0.1764
      5 C5          0.3673   -2.3087   -0.2006 C.ar      1 <0>        -0.0842
      6 C6          0.3500   -1.5498    0.9532 C.ar      1 <0>        -0.0279
      7 C7         -0.4781   -0.4379    1.0407 C.ar      1 <0>         0.0945
      8 O1         -0.4913    0.3119    2.1744 O.3       1 <0>        -0.2404
      9 C8         -1.3709   -0.0275    3.1541 C.ar      1 <0>         0.1086
     10 C9         -2.2166   -1.1166    2.9792 C.ar      1 <0>        -0.1514
     11 C10        -3.1129   -1.4689    3.9679 C.ar      1 <0>        -0.1081
     12 C11        -3.1756   -0.7371    5.1443 C.ar      1 <0>         0.1322
     13 C12        -2.3261    0.3618    5.3272 C.ar      1 <0>        -0.1210
     14 C13        -1.4178    0.7083    4.3238 C.ar      1 <0>        -0.0974
     15 C14        -2.3866    1.1460    6.5754 C.2       1 <0>         0.5728
     16 O2         -2.4154    0.5774    7.6498 O.2       1 <0>        -0.5274
     17 N1         -2.4099    2.4926    6.5248 N.am      1 <0>        -0.6053
     18 C15        -2.5112    3.1917    5.2365 C.3       1 <0>         0.0994
     19 C16        -3.6919    4.1660    5.2957 C.3       1 <0>        -0.1363
     20 C17        -3.5234    5.0926    6.5021 C.3       1 <0>        -0.1213
     21 C18        -3.5170    4.2627    7.7879 C.3       1 <0>        -0.1360
     22 C19        -2.3406    3.2894    7.7574 C.3       1 <0>         0.1109
     23 O3         -4.0577   -1.0843    6.1156 O.3       1 <0>        -0.4875
     24 Cl1         1.3675   -1.9820    2.2917 Cl        1 <0>        -0.0304
     25 N2         -0.4310   -2.7317   -2.4414 N.am      1 <0>        -0.4029
     26 C20        -0.5578   -4.0681   -2.3589 C.2       1 <0>         0.6825
     27 O4         -0.6852   -4.5914   -1.2688 O.2       1 <0>        -0.5123
     28 N3         -0.5462   -4.8352   -3.4652 N.am      1 <0>        -0.6541
     29 H1         -0.6394   -5.7977   -3.3886 H         1 <0>         0.4391
     30 C21        -0.4054   -4.2661   -4.6802 C.2       1 <0>         0.5166
     31 O5         -0.3944   -4.9532   -5.6850 O.2       1 <0>        -0.4685
     32 C22        -0.2665   -2.8107   -4.7755 C.2       1 <0>         0.0641
     33 N4         -0.2884   -2.0990   -3.6820 N.2       1 <0>        -0.1660
     34 H2         -1.6671    1.9894   -0.2883 H         1 <0>         0.0870
     35 H3         -3.0870    0.9454   -0.5376 H         1 <0>         0.0779
     36 H4         -2.4908    1.2585    1.1101 H         1 <0>         0.0747
     37 H5         -1.9128   -0.5847   -2.0125 H         1 <0>         0.1486
     38 H6          1.0137   -3.1710   -0.2704 H         1 <0>         0.1492
     39 H7         -2.1724   -1.6898    2.0650 H         1 <0>         0.1348
     40 H8         -3.7672   -2.3161    3.8249 H         1 <0>         0.1423
     41 H9         -0.7569    1.5516    4.4596 H         1 <0>         0.1446
     42 H10        -1.5908    3.7440    5.0471 H         1 <0>         0.0731
     43 H11        -2.6754    2.4667    4.4393 H         1 <0>         0.0906
     44 H12        -3.7198    4.7598    4.3821 H         1 <0>         0.0778
     45 H13        -4.6215    3.6056    5.3945 H         1 <0>         0.0680
     46 H14        -2.5817    5.6346    6.4150 H         1 <0>         0.0656
     47 H15        -4.3495    5.8030    6.5324 H         1 <0>         0.0673
     48 H16        -3.4205    4.9253    8.6480 H         1 <0>         0.0775
     49 H17        -4.4483    3.7014    7.8632 H         1 <0>         0.0675
     50 H18        -2.3922    2.6288    8.6229 H         1 <0>         0.0943
     51 H19        -1.4059    3.8498    7.7781 H         1 <0>         0.0700
     52 H20        -3.7063   -1.7148    6.7590 H         1 <0>         0.4001
     53 H21        -0.1526   -2.3333   -5.7376 H         1 <0>         0.2327
@<TRIPOS>BOND
     1    1    2 1
     2    1   34 1
     3    1   35 1
     4    1   36 1
     5    2    7 ar
     6    2    3 ar
     7    3    4 ar
     8    3   37 1
     9    4    5 ar
    10    4   25 1
    11    5    6 ar
    12    5   38 1
    13    6    7 ar
    14    6   24 1
    15    7    8 1
    16    8    9 1
    17    9   14 ar
    18    9   10 ar
    19   10   11 ar
    20   10   39 1
    21   11   12 ar
    22   11   40 1
    23   12   13 ar
    24   12   23 1
    25   13   14 ar
    26   13   15 1
    27   14   41 1
    28   15   16 2
    29   15   17 am
    30   17   22 1
    31   17   18 1
    32   18   19 1
    33   18   42 1
    34   18   43 1
    35   19   20 1
    36   19   44 1
    37   19   45 1
    38   20   21 1
    39   20   46 1
    40   20   47 1
    41   21   22 1
    42   21   48 1
    43   21   49 1
    44   22   50 1
    45   22   51 1
    46   23   52 1
    47   25   33 1
    48   25   26 am
    49   26   27 2
    50   26   28 am
    51   28   29 1
    52   28   30 am
    53   30   31 2
    54   30   32 1
    55   32   33 2
    56   32   53 1
@<TRIPOS>MOLECULE
CHEMBL340490__1
   52    55     0     0     0
SMALL
USER_CHARGES

@<TRIPOS>ATOM
      1 C1         -2.1788    1.0777    0.0791 C.3       1 <0>        -0.1088
      2 C2         -1.2802   -0.1286   -0.0120 C.ar      1 <0>        -0.0658
      3 C3         -1.2653   -0.8927   -1.1618 C.ar      1 <0>        -0.0990
      4 C4         -0.4375   -2.0049   -1.2460 C.ar      1 <0>         0.1918
      5 C5          0.3759   -2.3479   -0.1729 C.ar      1 <0>        -0.0825
      6 C6          0.3606   -1.5828    0.9765 C.ar      1 <0>        -0.0253
      7 C7         -0.4640   -0.4676    1.0575 C.ar      1 <0>         0.0699
      8 O1         -0.4748    0.2887    2.1868 O.3       1 <0>        -0.2391
      9 C8         -1.3558   -0.0422    3.1682 C.ar      1 <0>         0.1150
     10 C9         -2.2051   -1.1294    2.9994 C.ar      1 <0>        -0.1486
     11 C10        -3.1031   -1.4728    3.9897 C.ar      1 <0>        -0.1069
     12 C11        -3.1635   -0.7341    5.1619 C.ar      1 <0>         0.1252
     13 C12        -2.3101    0.3627    5.3388 C.ar      1 <0>        -0.1255
     14 C13        -1.4005    0.7004    4.3337 C.ar      1 <0>        -0.1033
     15 C14        -2.3679    1.1539    6.5828 C.2       1 <0>         0.5761
     16 O2         -2.3942    0.5913    7.6604 O.2       1 <0>        -0.5310
     17 N1         -2.3914    2.5002    6.5247 N.am      1 <0>        -0.6064
     18 C15        -2.4946    3.1920    5.2327 C.3       1 <0>         0.0990
     19 C16        -3.6753    4.1666    5.2881 C.3       1 <0>        -0.1364
     20 C17        -3.5052    5.0999    6.4890 C.3       1 <0>        -0.1204
     21 C18        -3.4969    4.2772    7.7795 C.3       1 <0>        -0.1354
     22 C19        -2.3204    3.3038    7.7527 C.3       1 <0>         0.1114
     23 O3         -4.0473   -1.0726    6.1347 O.3       1 <0>        -0.4889
     24 Cl1         1.3764   -2.0106    2.3177 Cl        1 <0>        -0.0467
     25 N2         -0.4230   -2.7802   -2.4113 N.am      1 <0>        -0.3713
     26 C20        -0.5567   -4.1153   -2.3160 C.2       1 <0>         0.6167
     27 O4         -0.6881   -4.6342   -1.2197 O.2       1 <0>        -0.5711
     28 N3         -0.5469   -4.8772   -3.4136 N.2       1 <0>        -0.6255
     29 C21        -0.4032   -4.3001   -4.5988 C.2       1 <0>         0.4333
     30 O5         -0.3895   -5.0418   -5.7289 O.3       1 <0>        -0.6474
     31 C22        -0.2652   -2.8960   -4.6580 C.2       1 <0>         0.0018
     32 N4         -0.2874   -2.2007   -3.5521 N.2       1 <0>        -0.2197
     33 H1         -1.6458    1.9561   -0.2848 H         1 <0>         0.0811
     34 H2         -3.0685    0.9147   -0.5291 H         1 <0>         0.0742
     35 H3         -2.4720    1.2348    1.1171 H         1 <0>         0.0691
     36 H4         -1.8976   -0.6259   -1.9957 H         1 <0>         0.1436
     37 H5          1.0195   -3.2128   -0.2377 H         1 <0>         0.1488
     38 H6         -2.1624   -1.7082    2.0886 H         1 <0>         0.1390
     39 H7         -3.7604   -2.3185    3.8512 H         1 <0>         0.1415
     40 H8         -0.7367    1.5422    4.4649 H         1 <0>         0.1420
     41 H9         -1.5746    3.7433    5.0388 H         1 <0>         0.0724
     42 H10        -2.6599    2.4626    4.4398 H         1 <0>         0.0933
     43 H11        -3.7046    4.7552    4.3712 H         1 <0>         0.0777
     44 H12        -4.6047    3.6065    5.3914 H         1 <0>         0.0679
     45 H13        -2.5637    5.6414    6.3976 H         1 <0>         0.0649
     46 H14        -4.3314    5.8104    6.5166 H         1 <0>         0.0657
     47 H15        -3.3992    4.9445    8.6358 H         1 <0>         0.0755
     48 H16        -4.4280    3.7161    7.8593 H         1 <0>         0.0671
     49 H17        -2.3707    2.6481    8.6219 H         1 <0>         0.0932
     50 H18        -1.3857    3.8645    7.7689 H         1 <0>         0.0684
     51 H19        -3.6984   -1.7007    6.7819 H         1 <0>         0.3970
     52 H20        -0.1468   -2.4005   -5.6102 H         1 <0>         0.1824
@<TRIPOS>BOND
     1    1    2 1
     2    1   33 1
     3    1   34 1
     4    1   35 1
     5    2    7 ar
     6    2    3 ar
     7    3    4 ar
     8    3   36 1
     9    4    5 ar
    10    4   25 1
    11    5    6 ar
    12    5   37 1
    13    6    7 ar
    14    6   24 1
    15    7    8 1
    16    8    9 1
    17    9   14 ar
    18    9   10 ar
    19   10   11 ar
    20   10   38 1
    21   11   12 ar
    22   11   39 1
    23   12   13 ar
    24   12   23 1
    25   13   14 ar
    26   13   15 1
    27   14   40 1
    28   15   16 2
    29   15   17 am
    30   17   22 1
    31   17   18 1
    32   18   19 1
    33   18   41 1
    34   18   42 1
    35   19   20 1
    36   19   43 1
    37   19   44 1
    38   20   21 1
    39   20   45 1
    40   20   46 1
    41   21   22 1
    42   21   47 1
    43   21   48 1
    44   22   49 1
    45   22   50 1
    46   23   51 1
    47   25   32 1
    48   25   26 am
    49   26   27 2
    50   26   28 1
    51   28   29 2
    52   29   30 1
    53   29   31 1
    54   31   32 2
    55   31   52 1
@<TRIPOS>MOLECULE
CHEMBL596350
   54    58     0     0     0
SMALL
USER_CHARGES

@<TRIPOS>ATOM
      1 C1         -1.2771   -0.2016    3.4477 C.ar      1 <0>        -0.1153
      2 C2         -0.3515    0.8228    3.5215 C.ar      1 <0>        -0.1196
      3 C3          0.8883    0.6677    2.9366 C.ar      1 <0>        -0.1112
      4 C4          1.2145   -0.5103    2.2782 C.ar      1 <0>        -0.0987
      5 C5          0.2975   -1.5349    2.2122 C.ar      1 <0>        -0.0681
      6 C6         -0.9534   -1.3729    2.7956 C.ar      1 <0>        -0.1189
      7 C7          0.5903   -2.8516    1.5423 C.3       1 <0>        -0.0981
      8 C8          1.7553   -2.7166    0.5631 C.3       1 <0>         0.1131
      9 N1          2.8414   -1.9957    1.2474 N.am      1 <0>        -0.6072
     10 C9          2.5813   -0.6089    1.6484 C.3       1 <0>         0.1448
     11 C10         4.0271   -2.5864    1.4956 C.2       1 <0>         0.5781
     12 O1          4.1824   -3.7664    1.2465 O.2       1 <0>        -0.5227
     13 C11         5.1366   -1.8013    2.0695 C.ar      1 <0>        -0.1228
     14 C12         5.4123   -0.5194    1.5874 C.ar      1 <0>        -0.0955
     15 C13         6.4534    0.2109    2.1303 C.ar      1 <0>         0.1091
     16 C14         7.2253   -0.3271    3.1534 C.ar      1 <0>        -0.1497
     17 C15         6.9595   -1.5928    3.6353 C.ar      1 <0>        -0.1072
     18 C16         5.9152   -2.3353    3.1045 C.ar      1 <0>         0.1370
     19 O2          5.6516   -3.5778    3.5829 O.3       1 <0>        -0.4858
     20 O3          6.7232    1.4584    1.6617 O.3       1 <0>        -0.2350
     21 C17         7.7555    2.1418    2.2235 C.ar      1 <0>         0.1064
     22 C18         7.5313    2.9543    3.3269 C.ar      1 <0>        -0.0244
     23 C19         8.5802    3.6489    3.8980 C.ar      1 <0>        -0.0792
     24 C20         9.8591    3.5343    3.3682 C.ar      1 <0>         0.1868
     25 C21        10.0831    2.7215    2.2644 C.ar      1 <0>        -0.0737
     26 C22         9.0349    2.0227    1.6972 C.ar      1 <0>        -0.0223
     27 Cl1         9.3161    1.0007    0.3224 Cl        1 <0>        -0.0159
     28 N2         10.9223    4.2386    3.9466 N.am      1 <0>        -0.4044
     29 C23        11.7448    4.9594    3.1638 C.2       1 <0>         0.6841
     30 O4         11.5540    4.9905    1.9633 O.2       1 <0>        -0.5102
     31 N3         12.7757    5.6474    3.6892 N.am      1 <0>        -0.6531
     32 H1         13.3595    6.1627    3.1109 H         1 <0>         0.4402
     33 C24        12.9972    5.6209    5.0198 C.2       1 <0>         0.5164
     34 O5         13.9272    6.2408    5.5021 O.2       1 <0>        -0.4656
     35 C25        12.1042    4.8372    5.8770 C.2       1 <0>         0.0697
     36 N4         11.1119    4.1878    5.3327 N.2       1 <0>        -0.1684
     37 Cl2         5.9328    3.0978    3.9886 Cl        1 <0>        -0.0173
     38 H2         -2.2495   -0.0865    3.9034 H         1 <0>         0.1235
     39 H3         -0.5981    1.7407    4.0344 H         1 <0>         0.1244
     40 H4          1.6106    1.4688    2.9911 H         1 <0>         0.1236
     41 H5         -1.6784   -2.1714    2.7381 H         1 <0>         0.1228
     42 H6          0.8440   -3.5914    2.3014 H         1 <0>         0.0831
     43 H7         -0.2959   -3.1834    1.0014 H         1 <0>         0.0889
     44 H8          2.1012   -3.7058    0.2630 H         1 <0>         0.1011
     45 H9          1.4359   -2.1550   -0.3148 H         1 <0>         0.0783
     46 H10         2.6239    0.0364    0.7710 H         1 <0>         0.0851
     47 H11         3.3360   -0.2919    2.3681 H         1 <0>         0.0998
     48 H12         4.8139   -0.0999    0.7922 H         1 <0>         0.1458
     49 H13         8.0373    0.2480    3.5731 H         1 <0>         0.1334
     50 H14         7.5634   -2.0044    4.4305 H         1 <0>         0.1439
     51 H15         6.1286   -4.2843    3.1265 H         1 <0>         0.4003
     52 H16         8.4057    4.2811    4.7560 H         1 <0>         0.1596
     53 H17        11.0773    2.6322    1.8523 H         1 <0>         0.1571
     54 H18        12.2624    4.8011    6.9448 H         1 <0>         0.2342
@<TRIPOS>BOND
     1    1    6 ar
     2    1    2 ar
     3    1   38 1
     4    2    3 ar
     5    2   39 1
     6    3    4 ar
     7    3   40 1
     8    4   10 1
     9    4    5 ar
    10    5    6 ar
    11    5    7 1
    12    6   41 1
    13    7    8 1
    14    7   42 1
    15    7   43 1
    16    8    9 1
    17    8   44 1
    18    8   45 1
    19    9   10 1
    20    9   11 am
    21   10   46 1
    22   10   47 1
    23   11   12 2
    24   11   13 1
    25   13   18 ar
    26   13   14 ar
    27   14   15 ar
    28   14   48 1
    29   15   16 ar
    30   15   20 1
    31   16   17 ar
    32   16   49 1
    33   17   18 ar
    34   17   50 1
    35   18   19 1
    36   19   51 1
    37   20   21 1
    38   21   26 ar
    39   21   22 ar
    40   22   23 ar
    41   22   37 1
    42   23   24 ar
    43   23   52 1
    44   24   25 ar
    45   24   28 1
    46   25   26 ar
    47   25   53 1
    48   26   27 1
    49   28   36 1
    50   28   29 am
    51   29   30 2
    52   29   31 am
    53   31   32 1
    54   31   33 am
    55   33   34 2
    56   33   35 1
    57   35   36 2
    58   35   54 1
@<TRIPOS>MOLECULE
CHEMBL596350__1
   53    57     0     0     0
SMALL
USER_CHARGES

@<TRIPOS>ATOM
      1 C1         -1.2801   -0.1925    3.4418 C.ar      1 <0>        -0.1173
      2 C2         -0.3537    0.8313    3.5149 C.ar      1 <0>        -0.1196
      3 C3          0.8866    0.6742    2.9316 C.ar      1 <0>        -0.1101
      4 C4          1.2126   -0.5050    2.2754 C.ar      1 <0>        -0.0957
      5 C5          0.2948   -1.5291    2.2101 C.ar      1 <0>        -0.0692
      6 C6         -0.9566   -1.3651    2.7919 C.ar      1 <0>        -0.1204
      7 C7          0.5873   -2.8470    1.5426 C.3       1 <0>        -0.0971
      8 C8          1.7534   -2.7146    0.5645 C.3       1 <0>         0.1134
      9 N1          2.8393   -1.9935    1.2488 N.am      1 <0>        -0.6081
     10 C9          2.5799   -0.6058    1.6473 C.3       1 <0>         0.1433
     11 C10         4.0243   -2.5847    1.4992 C.2       1 <0>         0.5811
     12 O1          4.1790   -3.7651    1.2522 O.2       1 <0>        -0.5263
     13 C11         5.1339   -1.7995    2.0729 C.ar      1 <0>        -0.1267
     14 C12         5.4110   -0.5185    1.5890 C.ar      1 <0>        -0.1014
     15 C13         6.4525    0.2116    2.1315 C.ar      1 <0>         0.1164
     16 C14         7.2235   -0.3258    3.1555 C.ar      1 <0>        -0.1476
     17 C15         6.9563   -1.5905    3.6392 C.ar      1 <0>        -0.1066
     18 C16         5.9111   -2.3324    3.1095 C.ar      1 <0>         0.1296
     19 O2          5.6456   -3.5737    3.5901 O.3       1 <0>        -0.4873
     20 O3          6.7233    1.4583    1.6616 O.3       1 <0>        -0.2333
     21 C17         7.7559    2.1416    2.2228 C.ar      1 <0>         0.0812
     22 C18         7.5318    2.9556    3.3253 C.ar      1 <0>        -0.0215
     23 C19         8.5808    3.6500    3.8959 C.ar      1 <0>        -0.0912
     24 C20         9.8600    3.5339    3.3667 C.ar      1 <0>         0.2021
     25 C21        10.0838    2.7194    2.2637 C.ar      1 <0>        -0.0727
     26 C22         9.0354    2.0208    1.6971 C.ar      1 <0>        -0.0195
     27 Cl1         9.3163    0.9975    0.3232 Cl        1 <0>        -0.0319
     28 N2         10.9231    4.2377    3.9443 N.am      1 <0>        -0.3718
     29 C23        11.7421    4.9573    3.1564 C.2       1 <0>         0.6174
     30 O4         11.5506    4.9888    1.9519 O.2       1 <0>        -0.5687
     31 N3         12.7637    5.6382    3.6837 N.2       1 <0>        -0.6229
     32 C24        12.9603    5.5952    4.9943 C.2       1 <0>         0.4331
     33 O5         13.9841    6.2729    5.5598 O.3       1 <0>        -0.6439
     34 C25        12.0794    4.8284    5.7881 C.2       1 <0>         0.0089
     35 N4         11.0937    4.1873    5.2186 N.2       1 <0>        -0.2230
     36 Cl2         5.9332    3.1011    3.9862 Cl        1 <0>        -0.0354
     37 H1         -2.2528   -0.0760    3.8963 H         1 <0>         0.1222
     38 H2         -0.6001    1.7502    4.0261 H         1 <0>         0.1242
     39 H3          1.6094    1.4749    2.9856 H         1 <0>         0.1253
     40 H4         -1.6821   -2.1631    2.7349 H         1 <0>         0.1213
     41 H5          0.8396   -3.5859    2.3033 H         1 <0>         0.0823
     42 H6         -0.2986   -3.1791    1.0014 H         1 <0>         0.0871
     43 H7          2.0988   -3.7045    0.2663 H         1 <0>         0.1001
     44 H8          1.4354   -2.1541   -0.3147 H         1 <0>         0.0769
     45 H9          2.6239    0.0381    0.7689 H         1 <0>         0.0856
     46 H10         3.3341   -0.2882    2.3672 H         1 <0>         0.1026
     47 H11         4.8134   -0.0996    0.7929 H         1 <0>         0.1436
     48 H12         8.0361    0.2491    3.5746 H         1 <0>         0.1367
     49 H13         7.5597   -2.0016    4.4350 H         1 <0>         0.1423
     50 H14         6.1219   -4.2818    3.1353 H         1 <0>         0.3971
     51 H15         8.4065    4.2834    4.7531 H         1 <0>         0.1548
     52 H16        11.0781    2.6292    1.8519 H         1 <0>         0.1569
     53 H17        12.2167    4.7762    6.8581 H         1 <0>         0.1840
@<TRIPOS>BOND
     1    1    6 ar
     2    1    2 ar
     3    1   37 1
     4    2    3 ar
     5    2   38 1
     6    3    4 ar
     7    3   39 1
     8    4   10 1
     9    4    5 ar
    10    5    6 ar
    11    5    7 1
    12    6   40 1
    13    7    8 1
    14    7   41 1
    15    7   42 1
    16    8    9 1
    17    8   43 1
    18    8   44 1
    19    9   10 1
    20    9   11 am
    21   10   45 1
    22   10   46 1
    23   11   12 2
    24   11   13 1
    25   13   18 ar
    26   13   14 ar
    27   14   15 ar
    28   14   47 1
    29   15   16 ar
    30   15   20 1
    31   16   17 ar
    32   16   48 1
    33   17   18 ar
    34   17   49 1
    35   18   19 1
    36   19   50 1
    37   20   21 1
    38   21   26 ar
    39   21   22 ar
    40   22   23 ar
    41   22   36 1
    42   23   24 ar
    43   23   51 1
    44   24   25 ar
    45   24   28 1
    46   25   26 ar
    47   25   52 1
    48   26   27 1
    49   28   35 1
    50   28   29 am
    51   29   30 2
    52   29   31 1
    53   31   32 2
    54   32   33 1
    55   32   34 1
    56   34   35 2
    57   34   53 1
@<TRIPOS>MOLECULE
CHEMBL159610
   48    50     0     0     0
SMALL
USER_CHARGES

@<TRIPOS>ATOM
      1 C1         -0.8400    1.3185   -0.1283 C.3       1 <0>        -0.1104
      2 C2         -0.4374   -0.1328   -0.0769 C.ar      1 <0>        -0.0617
      3 C3         -0.4208   -0.8856   -1.2338 C.ar      1 <0>        -0.1249
      4 C4         -0.0495   -2.2237   -1.1862 C.ar      1 <0>         0.1793
      5 C5          0.3048   -2.8029    0.0262 C.ar      1 <0>        -0.1528
      6 C6          0.2876   -2.0486    1.1821 C.ar      1 <0>        -0.0632
      7 C7         -0.0779   -0.7106    1.1327 C.ar      1 <0>         0.0329
      8 O1         -0.0892    0.0328    2.2705 O.3       1 <0>        -0.2419
      9 C8         -1.2382    0.0714    2.9964 C.ar      1 <0>         0.1251
     10 C9         -2.3524   -0.6419    2.5689 C.ar      1 <0>        -0.1583
     11 C10        -3.5235   -0.6097    3.2989 C.ar      1 <0>        -0.1023
     12 C11        -3.5967    0.1359    4.4658 C.ar      1 <0>         0.0969
     13 C12        -2.4770    0.8578    4.9030 C.ar      1 <0>        -0.1401
     14 C13        -1.2934    0.8152    4.1602 C.ar      1 <0>        -0.1027
     15 C14        -2.5457    1.6532    6.1426 C.2       1 <0>         0.4596
     16 O2         -2.0183    1.2427    7.1585 O.2       1 <0>        -0.4380
     17 C15        -3.2551    2.9484    6.1504 C.ar      1 <0>        -0.1725
     18 C16        -3.2409    3.7488    7.2957 C.ar      1 <0>        -0.0311
     19 C17        -3.9042    4.9567    7.2971 C.ar      1 <0>        -0.1694
     20 C18        -4.5849    5.3784    6.1648 C.ar      1 <0>         0.1327
     21 C19        -4.6024    4.5881    5.0253 C.ar      1 <0>        -0.1671
     22 C20        -3.9382    3.3807    5.0107 C.ar      1 <0>        -0.0235
     23 F1         -5.2339    6.5633    6.1719 F         1 <0>        -0.1335
     24 O3         -4.7488    0.1671    5.1823 O.3       1 <0>        -0.4909
     25 C21         0.6718   -2.6765    2.4970 C.3       1 <0>        -0.1101
     26 N1         -0.0328   -2.9869   -2.3572 N.am      1 <0>        -0.6652
     27 C22         0.3364   -2.4227   -3.5241 C.2       1 <0>         0.4529
     28 O4          0.5757   -1.2340   -3.5745 O.2       1 <0>        -0.5220
     29 C23         0.4511   -3.2613   -4.7568 C.2       1 <0>         0.5000
     30 O5          0.7854   -2.7503   -5.8135 O.co2     1 <0>        -0.6361
     31 O6          0.2104   -4.4566   -4.7062 O.co2     1 <0>        -0.6647
     32 H1          0.0419    1.9342   -0.3046 H         1 <0>         0.0765
     33 H2         -1.5555    1.4686   -0.9367 H         1 <0>         0.0703
     34 H3         -1.2977    1.6023    0.8194 H         1 <0>         0.0638
     35 H4         -0.6966   -0.4347   -2.1756 H         1 <0>         0.1469
     36 H5          0.5932   -3.8430    0.0641 H         1 <0>         0.1335
     37 H6         -2.3015   -1.2241    1.6607 H         1 <0>         0.1402
     38 H7         -4.3849   -1.1662    2.9602 H         1 <0>         0.1393
     39 H8         -0.4255    1.3653    4.4927 H         1 <0>         0.1405
     40 H9         -2.7114    3.4213    8.1782 H         1 <0>         0.1445
     41 H10        -3.8942    5.5761    8.1818 H         1 <0>         0.1429
     42 H11        -5.1344    4.9212    4.1464 H         1 <0>         0.1436
     43 H12        -3.9490    2.7680    4.1214 H         1 <0>         0.1420
     44 H13        -4.8126   -0.5249    5.8548 H         1 <0>         0.3908
     45 H14         1.7442   -2.5617    2.6549 H         1 <0>         0.0752
     46 H15         0.1308   -2.1855    3.3060 H         1 <0>         0.0646
     47 H16         0.4183   -3.7365    2.4814 H         1 <0>         0.0692
     48 H17        -0.2870   -3.9227   -2.3299 H         1 <0>         0.4194
@<TRIPOS>BOND
     1    1    2 1
     2    1   32 1
     3    1   33 1
     4    1   34 1
     5    2    7 ar
     6    2    3 ar
     7    3    4 ar
     8    3   35 1
     9    4    5 ar
    10    4   26 1
    11    5    6 ar
    12    5   36 1
    13    6    7 ar
    14    6   25 1
    15    7    8 1
    16    8    9 1
    17    9   14 ar
    18    9   10 ar
    19   10   11 ar
    20   10   37 1
    21   11   12 ar
    22   11   38 1
    23   12   13 ar
    24   12   24 1
    25   13   14 ar
    26   13   15 1
    27   14   39 1
    28   15   16 2
    29   15   17 1
    30   17   22 ar
    31   17   18 ar
    32   18   19 ar
    33   18   40 1
    34   19   20 ar
    35   19   41 1
    36   20   21 ar
    37   20   23 1
    38   21   22 ar
    39   21   42 1
    40   22   43 1
    41   24   44 1
    42   25   45 1
    43   25   46 1
    44   25   47 1
    45   26   27 am
    46   26   48 1
    47   27   28 2
    48   27   29 1
    49   29   30 2
    50   29   31 1
@<TRIPOS>MOLECULE
CHEMBL608990
   43    45     0     0     0
SMALL
USER_CHARGES

@<TRIPOS>ATOM
      1 C1         -0.4052    1.4770    0.0173 C.3       1 <0>        -0.1100
      2 C2         -0.1889   -0.0144    0.0041 C.ar      1 <0>        -0.0612
      3 C3         -0.1801   -0.6997   -1.1940 C.ar      1 <0>        -0.1252
      4 C4          0.0197   -2.0747   -1.2059 C.ar      1 <0>         0.1805
      5 C5          0.2105   -2.7586   -0.0115 C.ar      1 <0>        -0.1551
      6 C6          0.2014   -2.0717    1.1857 C.ar      1 <0>        -0.0638
      7 C7          0.0070   -0.6975    1.1963 C.ar      1 <0>         0.0363
      8 O1          0.0033   -0.0210    2.3753 O.3       1 <0>        -0.2444
      9 C8         -1.1825    0.1237    3.0244 C.ar      1 <0>         0.1357
     10 C9         -2.3379   -0.4171    2.4815 C.ar      1 <0>        -0.1772
     11 C10        -3.5427   -0.2711    3.1404 C.ar      1 <0>        -0.1047
     12 C11        -3.5944    0.4159    4.3433 C.ar      1 <0>         0.0755
     13 C12        -2.4378    0.9586    4.8890 C.ar      1 <0>        -0.0876
     14 C13        -1.2316    0.8082    4.2326 C.ar      1 <0>        -0.1149
     15 C14        -0.1298    1.4769    5.0264 C.3       1 <0>        -0.0719
     16 C15        -0.8557    2.4173    6.0119 C.3       1 <0>        -0.1210
     17 C16        -2.2304    1.7405    6.1684 C.3       1 <0>        -0.0751
     18 O2         -4.7813    0.5594    4.9911 O.3       1 <0>        -0.4963
     19 C17         0.4078   -2.8132    2.4813 C.3       1 <0>        -0.1083
     20 N1          0.0284   -2.7697   -2.4187 N.am      1 <0>        -0.6652
     21 C18         0.5077   -2.1782   -3.5309 C.2       1 <0>         0.4522
     22 O3          1.0192   -1.0798   -3.4617 O.2       1 <0>        -0.5213
     23 C19         0.4092   -2.8754   -4.8501 C.2       1 <0>         0.4998
     24 O4          0.8432   -2.3398   -5.8572 O.co2     1 <0>        -0.6367
     25 O5         -0.1051   -3.9799   -4.9197 O.co2     1 <0>        -0.6651
     26 H1          0.5564    1.9842   -0.0615 H         1 <0>         0.0756
     27 H2         -1.0355    1.7602   -0.8257 H         1 <0>         0.0693
     28 H3         -0.8928    1.7652    0.9485 H         1 <0>         0.0643
     29 H4         -0.3288   -0.1675   -2.1219 H         1 <0>         0.1420
     30 H5          0.3656   -3.8274   -0.0198 H         1 <0>         0.1323
     31 H6         -2.2959   -0.9518    1.5441 H         1 <0>         0.1365
     32 H7         -4.4438   -0.6913    2.7188 H         1 <0>         0.1325
     33 H8          0.4492    0.7317    5.5717 H         1 <0>         0.0792
     34 H9          0.5186    2.0507    4.3643 H         1 <0>         0.0778
     35 H10        -0.3291    2.4607    6.9653 H         1 <0>         0.0777
     36 H11        -0.9689    3.4137    5.5847 H         1 <0>         0.0723
     37 H12        -3.0164    2.4863    6.2875 H         1 <0>         0.0790
     38 H13        -2.2143    1.0668    7.0251 H         1 <0>         0.0786
     39 H14        -4.9774   -0.1527    5.6153 H         1 <0>         0.3828
     40 H15         1.4716   -2.8443    2.7167 H         1 <0>         0.0737
     41 H16        -0.1267   -2.3017    3.2819 H         1 <0>         0.0644
     42 H17         0.0277   -3.8300    2.3825 H         1 <0>         0.0680
     43 H18        -0.3106   -3.6776   -2.4599 H         1 <0>         0.4189
@<TRIPOS>BOND
     1    1    2 1
     2    1   26 1
     3    1   27 1
     4    1   28 1
     5    2    7 ar
     6    2    3 ar
     7    3    4 ar
     8    3   29 1
     9    4    5 ar
    10    4   20 1
    11    5    6 ar
    12    5   30 1
    13    6    7 ar
    14    6   19 1
    15    7    8 1
    16    8    9 1
    17    9   14 ar
    18    9   10 ar
    19   10   11 ar
    20   10   31 1
    21   11   12 ar
    22   11   32 1
    23   12   13 ar
    24   12   18 1
    25   13   17 1
    26   13   14 ar
    27   14   15 1
    28   15   16 1
    29   15   33 1
    30   15   34 1
    31   16   17 1
    32   16   35 1
    33   16   36 1
    34   17   37 1
    35   17   38 1
    36   18   39 1
    37   19   40 1
    38   19   41 1
    39   19   42 1
    40   20   21 am
    41   20   43 1
    42   21   22 2
    43   21   23 1
    44   23   24 2
    45   23   25 1
@<TRIPOS>MOLECULE
CHEMBL594047
   52    54     0     0     0
SMALL
USER_CHARGES

@<TRIPOS>ATOM
      1 C1         -0.4026    1.4774    0.0173 C.3       1 <0>        -0.1135
      2 C2         -0.1876   -0.0141    0.0041 C.ar      1 <0>        -0.0490
      3 C3         -0.1788   -0.6998   -1.1949 C.ar      1 <0>        -0.1135
      4 C4          0.0188   -2.0739   -1.2074 C.ar      1 <0>         0.1964
      5 C5          0.2079   -2.7589   -0.0142 C.ar      1 <0>        -0.1478
      6 C6          0.1994   -2.0723    1.1845 C.ar      1 <0>        -0.0152
      7 C7          0.0069   -0.6970    1.1955 C.ar      1 <0>         0.0437
      8 O1          0.0036   -0.0205    2.3750 O.3       1 <0>        -0.2351
      9 C8         -1.1823    0.1255    3.0237 C.ar      1 <0>         0.1053
     10 C9         -2.3405   -0.4133    2.4819 C.ar      1 <0>        -0.1221
     11 C10        -3.5449   -0.2648    3.1409 C.ar      1 <0>        -0.1204
     12 C11        -3.5970    0.4229    4.3445 C.ar      1 <0>         0.1626
     13 C12        -2.4395    0.9619    4.8860 C.ar      1 <0>        -0.6541
     14 C13        -1.2335    0.8083    4.2300 C.ar      1 <0>        -0.0366
     15 S1         -2.5059    1.8359    6.4145 S.o2      1 <0>         2.5026
     16 O2         -3.1942    0.9644    7.3009 O.2       1 <0>        -0.9327
     17 O3         -1.1618    2.2179    6.6724 O.2       1 <0>        -0.9377
     18 C14        -3.5169    3.3021    6.0695 C.3       1 <0>        -0.5896
     19 C15        -3.6436    4.1447    7.3403 C.3       1 <0>        -0.1098
     20 C16        -4.8188    3.7286    8.2407 C.3       1 <0>        -0.1431
     21 C17        -5.0620    5.2278    8.4822 C.3       1 <0>        -0.1436
     22 C18        -4.3821    5.4763    7.1254 C.3       1 <0>        -0.1248
     23 O4         -4.7830    0.5690    4.9933 O.3       1 <0>        -0.5000
     24 Cl1         0.4357   -2.9278    2.6765 Cl        1 <0>        -0.0530
     25 N1          0.0268   -2.7695   -2.4235 N.am      1 <0>        -0.6904
     26 C19         0.5064   -2.1776   -3.5353 C.2       1 <0>         0.5081
     27 O5          1.0184   -1.0802   -3.4653 O.2       1 <0>        -0.4551
     28 C20         0.4067   -2.8791   -4.8653 C.3       1 <0>        -0.2071
     29 C21         1.0115   -2.0105   -5.9380 C.2       1 <0>         0.4940
     30 O6          1.4802   -0.9226   -5.6493 O.co2     1 <0>        -0.6547
     31 O7          1.0322   -2.3957   -7.0946 O.co2     1 <0>        -0.7013
     32 H1          0.5595    1.9838   -0.0609 H         1 <0>         0.0844
     33 H2         -1.0322    1.7612   -0.8261 H         1 <0>         0.0763
     34 H3         -0.8905    1.7660    0.9483 H         1 <0>         0.0666
     35 H4         -0.3259   -0.1670   -2.1227 H         1 <0>         0.1540
     36 H5          0.3613   -3.8279   -0.0235 H         1 <0>         0.1435
     37 H6         -2.3000   -0.9484    1.5447 H         1 <0>         0.1412
     38 H7         -4.4465   -0.6839    2.7190 H         1 <0>         0.1431
     39 H8         -0.3313    1.2235    4.6542 H         1 <0>         0.1594
     40 H9         -3.0429    3.8943    5.2867 H         1 <0>         0.1371
     41 H10        -4.5080    2.9907    5.7398 H         1 <0>         0.1451
     42 H11        -2.6990    4.2504    7.8740 H         1 <0>         0.1037
     43 H12        -5.6284    3.2362    7.7021 H         1 <0>         0.0914
     44 H13        -4.5127    3.1863    9.1353 H         1 <0>         0.0772
     45 H14        -6.1168    5.5019    8.4987 H         1 <0>         0.0723
     46 H15        -4.5060    5.6294    9.3293 H         1 <0>         0.0834
     47 H16        -3.7235    6.3449    7.1197 H         1 <0>         0.0733
     48 H17        -5.0723    5.4616    6.2819 H         1 <0>         0.0872
     49 H18        -4.9799   -0.1424    5.6180 H         1 <0>         0.4078
     50 H19        -0.3127   -3.6772   -2.4653 H         1 <0>         0.4082
     51 H20         0.9448   -3.8258   -4.8180 H         1 <0>         0.0907
     52 H21        -0.6411   -3.0681   -5.0987 H         1 <0>         0.0917
@<TRIPOS>BOND
     1    1    2 1
     2    1   32 1
     3    1   33 1
     4    1   34 1
     5    2    7 ar
     6    2    3 ar
     7    3    4 ar
     8    3   35 1
     9    4    5 ar
    10    4   25 1
    11    5    6 ar
    12    5   36 1
    13    6    7 ar
    14    6   24 1
    15    7    8 1
    16    8    9 1
    17    9   14 ar
    18    9   10 ar
    19   10   11 ar
    20   10   37 1
    21   11   12 ar
    22   11   38 1
    23   12   13 ar
    24   12   23 1
    25   13   14 ar
    26   13   15 1
    27   14   39 1
    28   15   16 2
    29   15   17 2
    30   15   18 1
    31   18   19 1
    32   18   40 1
    33   18   41 1
    34   19   22 1
    35   19   20 1
    36   19   42 1
    37   20   21 1
    38   20   43 1
    39   20   44 1
    40   21   22 1
    41   21   45 1
    42   21   46 1
    43   22   47 1
    44   22   48 1
    45   23   49 1
    46   25   26 am
    47   25   50 1
    48   26   27 2
    49   26   28 1
    50   28   29 1
    51   28   51 1
    52   28   52 1
    53   29   30 2
    54   29   31 1
