@<TRIPOS>MOLECULE
ZINC13187594
   57    61     0     0     0
SMALL
USER_CHARGES
3-[2-[(5R)-3-(2-naphthyl)-5-phenyl-4,5-dihydropyrazol-1-yl]-2-oxo-ethoxy]-4-nitro-benzoic acid
@<TRIPOS>ATOM
      1 C1         -9.8901   -1.8579   -3.4737 C.ar      1 <0>        -0.1141
      2 C2        -10.5310   -2.0011   -2.2573 C.ar      1 <0>        -0.1179
      3 C3         -9.8031   -2.3184   -1.1257 C.ar      1 <0>        -0.0980
      4 C4         -8.4344   -2.4930   -1.2107 C.ar      1 <0>        -0.0917
      5 C5         -7.7929   -2.3446   -2.4261 C.ar      1 <0>        -0.0998
      6 C6         -8.5213   -2.0316   -3.5585 C.ar      1 <0>        -0.1166
      7 C7         -7.6409   -2.8389    0.0229 C.3       1 <0>         0.1537
      8 H1         -8.2061   -2.5990    0.9235 H         1 <0>         0.1048
      9 C8         -7.2437   -4.3284    0.0124 C.3       1 <0>        -0.1229
     10 C9         -5.7320   -4.3021    0.0051 C.2       1 <0>         0.1434
     11 N1         -5.3227   -3.0804    0.0046 N.2       1 <0>        -0.2370
     12 N2         -6.3477   -2.1367    0.0206 N.am      1 <0>        -0.4645
     13 C10        -6.1819   -0.7992    0.0270 C.2       1 <0>         0.5583
     14 O1         -7.1498   -0.0681    0.0355 O.2       1 <0>        -0.4714
     15 C11        -4.7940   -0.2120    0.0236 C.3       1 <0>         0.0465
     16 O2         -4.8802    1.2143    0.0317 O.3       1 <0>        -0.2662
     17 C12        -3.7087    1.9033    0.0299 C.ar      1 <0>         0.1792
     18 C13        -2.5041    1.2203    0.0206 C.ar      1 <0>        -0.1825
     19 C14        -1.3037    1.9317    0.0187 C.ar      1 <0>        -0.0190
     20 C15        -1.3257    3.3280    0.0322 C.ar      1 <0>        -0.1114
     21 C16        -2.5315    3.9981    0.0348 C.ar      1 <0>        -0.0395
     22 C17        -3.7203    3.2915    0.0370 C.ar      1 <0>        -0.0824
     23 N3         -5.0099    4.0180    0.0466 N.pl3     1 <0>         0.0397
     24 O3         -5.0227    5.2359    0.0528 O.2       1 <0>        -0.1965
     25 O4         -6.0582    3.3979    0.0482 O.3       1 <0>        -0.1381
     26 C18        -0.0144    1.2105    0.0087 C.2       1 <0>         0.4859
     27 O5          0.0021   -0.0041    0.0020 O.co2     1 <0>        -0.6138
     28 C19        -4.8606   -5.4911   -0.0060 C.ar      1 <0>        -0.0387
     29 C20        -5.4332   -6.7769   -0.0106 C.ar      1 <0>        -0.0902
     30 C21        -4.6517   -7.8862   -0.0212 C.ar      1 <0>        -0.1080
     31 C22        -3.2502   -7.7606   -0.0283 C.ar      1 <0>        -0.0390
     32 C23        -2.4215   -8.8948   -0.0403 C.ar      1 <0>        -0.1160
     33 C24        -1.0686   -8.7423   -0.0475 C.ar      1 <0>        -0.1056
     34 C25        -0.4889   -7.4750   -0.0430 C.ar      1 <0>        -0.1203
     35 C26        -1.2590   -6.3531   -0.0314 C.ar      1 <0>        -0.0927
     36 C27        -2.6607   -6.4709   -0.0238 C.ar      1 <0>        -0.0576
     37 C28        -3.4835   -5.3348   -0.0176 C.ar      1 <0>        -0.0496
     38 H2        -10.4589   -1.6107   -4.3579 H         1 <0>         0.1224
     39 H3        -11.6004   -1.8655   -2.1910 H         1 <0>         0.1241
     40 H4        -10.3038   -2.4303   -0.1754 H         1 <0>         0.1234
     41 H5         -6.7230   -2.4767   -2.4917 H         1 <0>         0.1149
     42 H6         -8.0207   -1.9201   -4.5089 H         1 <0>         0.1225
     43 H7         -7.6131   -4.8289    0.9074 H         1 <0>         0.1097
     44 H8         -7.6241   -4.8192   -0.8835 H         1 <0>         0.1093
     45 H9         -4.2634   -0.5389   -0.8706 H         1 <0>         0.1046
     46 H10        -4.2550   -0.5485    0.9093 H         1 <0>         0.1056
     47 H11        -2.4938    0.1403    0.0143 H         1 <0>         0.1567
     48 H12        -0.3991    3.8830    0.0357 H         1 <0>         0.1578
     49 H13        -2.5472    5.0780    0.0400 H         1 <0>         0.1560
     50 H14        -6.5080   -6.8819   -0.0059 H         1 <0>         0.1286
     51 H15        -5.1058   -8.8662   -0.0246 H         1 <0>         0.1314
     52 H16        -2.8557   -9.8837   -0.0435 H         1 <0>         0.1271
     53 H17        -0.4350   -9.6169   -0.0563 H         1 <0>         0.1233
     54 H18         0.5871   -7.3820   -0.0492 H         1 <0>         0.1263
     55 H19        -0.7963   -5.3772   -0.0278 H         1 <0>         0.1355
     56 H20        -3.0476   -4.3466   -0.0185 H         1 <0>         0.1432
     57 O6          1.1429    1.8999    0.0013 O.co2     1 <0>        -0.7326
@<TRIPOS>BOND
     1    1    6 ar
     2    1    2 ar
     3    1   38 1
     4    2    3 ar
     5    2   39 1
     6    3    4 ar
     7    3   40 1
     8    4    5 ar
     9    4    7 1
    10    5    6 ar
    11    5   41 1
    12    6   42 1
    13    7    8 1
    14    7   12 1
    15    7    9 1
    16    9   10 1
    17    9   43 1
    18    9   44 1
    19   10   11 2
    20   10   28 1
    21   11   12 1
    22   12   13 am
    23   13   14 2
    24   13   15 1
    25   15   16 1
    26   15   45 1
    27   15   46 1
    28   16   17 1
    29   17   22 ar
    30   17   18 ar
    31   18   19 ar
    32   18   47 1
    33   19   20 ar
    34   19   26 1
    35   20   21 ar
    36   20   48 1
    37   21   22 ar
    38   21   49 1
    39   22   23 1
    40   23   24 2
    41   23   25 1
    42   26   27 2
    43   26   57 1
    44   28   37 ar
    45   28   29 ar
    46   29   30 ar
    47   29   50 1
    48   30   31 ar
    49   30   51 1
    50   31   36 ar
    51   31   32 ar
    52   32   33 ar
    53   32   52 1
    54   33   34 ar
    55   33   53 1
    56   34   35 ar
    57   34   54 1
    58   35   36 ar
    59   35   55 1
    60   36   37 ar
    61   37   56 1
@<TRIPOS>MOLECULE
ZINC08894058
   57    61     0     0     0
SMALL
USER_CHARGES
(5R)-1-(4,6-dimethyl-1,3-benzothiazol-2-yl)-3-hydroxy-4-(3-methoxybenzoyl)-5-(4-nitrophenyl)-5H-pyrrol-2-one
@<TRIPOS>ATOM
      1 C1         -1.0785   -0.9489    0.2757 C.3       1 <0>        -0.1102
      2 C2          0.1863   -0.1297    0.2574 C.ar      1 <0>        -0.0757
      3 C3          1.4245   -0.7501    0.3438 C.ar      1 <0>        -0.1109
      4 C4          2.5894   -0.0289    0.3293 C.ar      1 <0>        -0.0318
      5 C5          2.5649    1.3814    0.2255 C.ar      1 <0>         0.1106
      6 C6          1.2864    1.9788    0.1398 C.ar      1 <0>        -0.1486
      7 C7          0.1247    1.2478    0.1546 C.ar      1 <0>        -0.0670
      8 S1          1.6833    3.7069    0.0267 S.3       1 <0>        -0.0082
      9 C8          3.4607    3.5341    0.0983 C.2       1 <0>         0.4137
     10 N1          3.6118    2.2337    0.1975 N.2       1 <0>        -0.5272
     11 N2          4.4307    4.5201    0.0592 N.am      1 <0>        -0.5117
     12 C9          4.1908    5.9635   -0.0539 C.3       1 <0>         0.2620
     13 H1          3.5653    6.3077    0.7829 H         1 <0>         0.0954
     14 C10         5.5527    6.6178   -0.0558 C.2       1 <0>        -0.4951
     15 C11         6.4645    5.6218    0.0473 C.2       1 <0>         0.2824
     16 C12         5.7603    4.3254    0.1239 C.2       1 <0>         0.5112
     17 O1          6.3022    3.2428    0.2277 O.2       1 <0>        -0.4587
     18 O2          7.8066    5.7881    0.0806 O.3       1 <0>        -0.6227
     19 C13         5.8329    8.0531   -0.1516 C.2       1 <0>         0.5058
     20 O3          6.4037    8.4975   -1.1299 O.2       1 <0>        -0.4576
     21 C14         5.4218    8.9612    0.9407 C.ar      1 <0>        -0.1027
     22 C15         4.8742    8.4413    2.1159 C.ar      1 <0>        -0.1023
     23 C16         4.4924    9.2913    3.1328 C.ar      1 <0>        -0.0968
     24 C17         4.6498   10.6584    2.9931 C.ar      1 <0>        -0.1907
     25 C18         5.1936   11.1846    1.8289 C.ar      1 <0>         0.1098
     26 C19         5.5848   10.3404    0.8036 C.ar      1 <0>        -0.1026
     27 O4          5.3466   12.5286    1.6978 O.3       1 <0>        -0.3177
     28 C20         4.9268   13.3397    2.7969 C.3       1 <0>         0.0252
     29 C21         3.4672    6.2693   -1.3400 C.ar      1 <0>        -0.0377
     30 C22         3.8645    5.6639   -2.5174 C.ar      1 <0>        -0.0877
     31 C23         3.1974    5.9404   -3.6962 C.ar      1 <0>        -0.0502
     32 C24         2.1399    6.8306   -3.6994 C.ar      1 <0>        -0.0474
     33 C25         1.7462    7.4404   -2.5229 C.ar      1 <0>        -0.0511
     34 C26         2.4097    7.1596   -1.3432 C.ar      1 <0>        -0.1059
     35 N3          1.4288    7.1306   -4.9625 N.pl3     1 <0>         0.0339
     36 O5          0.4968    7.9147   -4.9652 O.2       1 <0>        -0.1670
     37 O6          1.7757    6.5933   -5.9990 O.3       1 <0>        -0.1669
     38 C27         3.9113   -0.7463    0.4247 C.3       1 <0>        -0.1201
     39 H2         -0.8233   -2.0154    0.3621 H         1 <0>         0.0681
     40 H3         -1.6382   -0.7801   -0.6561 H         1 <0>         0.0712
     41 H4         -1.6971   -0.6491    1.1344 H         1 <0>         0.0712
     42 H5          1.4710   -1.8261    0.4240 H         1 <0>         0.1302
     43 H6         -0.8312    1.7451    0.0821 H         1 <0>         0.1293
     44 H7          4.7503    7.3743    2.2283 H         1 <0>         0.1347
     45 H8          4.0688    8.8882    4.0408 H         1 <0>         0.1270
     46 H9          4.3490   11.3191    3.7928 H         1 <0>         0.1264
     47 H10         6.0117   10.7482   -0.1008 H         1 <0>         0.1381
     48 H11         5.1054   14.3990    2.5601 H         1 <0>         0.0989
     49 H12         5.4979   13.0635    3.6956 H         1 <0>         0.0546
     50 H13         3.8540   13.1809    2.9810 H         1 <0>         0.0545
     51 H14         4.6935    4.9717   -2.5157 H         1 <0>         0.1407
     52 H15         3.5047    5.4636   -4.6152 H         1 <0>         0.1518
     53 H16         0.9200    8.1360   -2.5254 H         1 <0>         0.1532
     54 H17         2.1021    7.6360   -0.4241 H         1 <0>         0.1492
     55 H18         4.7298   -0.0119    0.3979 H         1 <0>         0.0840
     56 H19         4.0137   -1.4405   -0.4224 H         1 <0>         0.0695
     57 H20         3.9552   -1.3101    1.3682 H         1 <0>         0.0695
@<TRIPOS>BOND
     1    1    2 1
     2    1   39 1
     3    1   40 1
     4    1   41 1
     5    2    7 ar
     6    2    3 ar
     7    3    4 ar
     8    3   42 1
     9    4    5 ar
    10    4   38 1
    11    5   10 1
    12    5    6 ar
    13    6    7 ar
    14    6    8 1
    15    7   43 1
    16    8    9 1
    17    9   10 2
    18    9   11 1
    19   11   16 am
    20   11   12 1
    21   12   13 1
    22   12   14 1
    23   12   29 1
    24   14   15 2
    25   14   19 1
    26   15   16 1
    27   15   18 1
    28   16   17 2
    29   19   20 2
    30   19   21 1
    31   21   26 ar
    32   21   22 ar
    33   22   23 ar
    34   22   44 1
    35   23   24 ar
    36   23   45 1
    37   24   25 ar
    38   24   46 1
    39   25   26 ar
    40   25   27 1
    41   26   47 1
    42   27   28 1
    43   28   48 1
    44   28   49 1
    45   28   50 1
    46   29   34 ar
    47   29   30 ar
    48   30   31 ar
    49   30   51 1
    50   31   32 ar
    51   31   52 1
    52   32   33 ar
    53   32   35 1
    54   33   34 ar
    55   33   53 1
    56   34   54 1
    57   35   36 2
    58   35   37 1
    59   38   55 1
    60   38   56 1
    61   38   57 1
@<TRIPOS>MOLECULE
ZINC35019692
   62    66     0     0     0
SMALL
USER_CHARGES

@<TRIPOS>ATOM
      1 C1          0.0797    1.3156    0.1232 C.3       1 <0>        -0.1521
      2 C2          0.0567   -0.2093   -0.0000 C.3       1 <0>         0.0631
      3 O1         -1.2969   -0.6674    0.0066 O.3       1 <0>        -0.3498
      4 C3         -1.4936   -1.9984   -0.0952 C.2       1 <0>         0.5719
      5 O2         -0.5405   -2.7490   -0.1871 O.2       1 <0>        -0.5058
      6 C4         -2.8516   -2.5385   -0.0951 C.2       1 <0>        -0.3417
      7 C5         -3.2827   -3.8562   -0.1825 C.2       1 <0>         0.2181
      8 N1         -4.5769   -4.0467   -0.1576 N.2       1 <0>        -0.5573
      9 C6         -5.4218   -3.0363   -0.0548 C.2       1 <0>         0.3413
     10 S1         -4.4174   -1.6883    0.0254 S.3       1 <0>         0.1939
     11 N2         -6.8026   -3.0771   -0.0163 N.am      1 <0>        -0.5064
     12 C7         -7.6981   -1.9195    0.0934 C.3       1 <0>         0.2607
     13 H1         -7.5585   -1.2555   -0.7597 H         1 <0>         0.0879
     14 C8         -9.1037   -2.4737    0.0959 C.2       1 <0>        -0.4884
     15 C9        -10.3474   -1.7029    0.1880 C.2       1 <0>         0.5123
     16 C10       -10.7314   -0.7881   -0.9050 C.ar      1 <0>        -0.1657
     17 C11        -9.9806   -0.7441   -2.0840 C.ar      1 <0>        -0.0306
     18 C12       -10.3422    0.1047   -3.1025 C.ar      1 <0>        -0.1521
     19 C13       -11.4600    0.9313   -2.9712 C.ar      1 <0>         0.1213
     20 C14       -12.1991    0.8889   -1.7919 C.ar      1 <0>        -0.1924
     21 C15       -11.8529    0.0376   -0.7723 C.ar      1 <0>        -0.0207
     22 C16       -13.3198    1.9011   -1.9346 C.3       1 <0>        -0.1031
     23 C17       -12.8402    2.7402   -3.1425 C.3       1 <0>         0.0759
     24 H2        -12.2754    3.6105   -2.8081 H         1 <0>         0.0859
     25 O3        -11.9899    1.8228   -3.8508 O.3       1 <0>        -0.3024
     26 C18       -14.0256    3.1670   -4.0106 C.3       1 <0>        -0.1491
     27 O4        -11.0633   -1.8173    1.1656 O.2       1 <0>        -0.4673
     28 C19        -8.9930   -3.8193   -0.0036 C.2       1 <0>         0.2726
     29 O5        -10.0276   -4.6908   -0.0356 O.3       1 <0>        -0.6333
     30 C20        -7.5639   -4.1846   -0.0786 C.2       1 <0>         0.5092
     31 O6         -7.1385   -5.3183   -0.1787 O.2       1 <0>        -0.4596
     32 C21        -7.4311   -1.1777    1.3777 C.ar      1 <0>        -0.0968
     33 C22        -7.2757   -1.8767    2.5601 C.ar      1 <0>        -0.0827
     34 C23        -7.0309   -1.1962    3.7382 C.ar      1 <0>        -0.1182
     35 C24        -6.9410    0.1832    3.7338 C.ar      1 <0>        -0.0874
     36 C25        -7.0955    0.8822    2.5512 C.ar      1 <0>        -0.1196
     37 C26        -7.3361    0.2014    1.3724 C.ar      1 <0>        -0.1003
     38 C27        -6.6750    0.9252    5.0182 C.3       1 <0>        -0.1111
     39 C28        -2.3126   -5.0035   -0.3000 C.3       1 <0>        -0.0912
     40 H3          1.1121    1.6650    0.1181 H         1 <0>         0.0783
     41 H4         -0.4571    1.7561   -0.7170 H         1 <0>         0.0669
     42 H5         -0.3997    1.6119    1.0562 H         1 <0>         0.0669
     43 H6          0.5360   -0.5057   -0.9330 H         1 <0>         0.0676
     44 H7          0.5935   -0.6498    0.8402 H         1 <0>         0.0675
     45 H8         -9.1137   -1.3788   -2.1942 H         1 <0>         0.1410
     46 H9         -9.7578    0.1330   -4.0103 H         1 <0>         0.1298
     47 H10       -12.4425    0.0084    0.1321 H         1 <0>         0.1321
     48 H11       -14.2658    1.4064   -2.1548 H         1 <0>         0.0897
     49 H12       -13.4035    2.5183   -1.0401 H         1 <0>         0.0900
     50 H13       -14.7138    3.7676   -3.4160 H         1 <0>         0.0780
     51 H14       -13.6649    3.7558   -4.8540 H         1 <0>         0.0669
     52 H15       -14.5425    2.2814   -4.3804 H         1 <0>         0.0674
     53 H16        -7.3460   -2.9544    2.5636 H         1 <0>         0.1147
     54 H17        -6.9102   -1.7422    4.6622 H         1 <0>         0.1187
     55 H18        -7.0255    1.9599    2.5477 H         1 <0>         0.1204
     56 H19        -7.4531    0.7472    0.4478 H         1 <0>         0.1232
     57 H20        -5.5997    1.0376    5.1569 H         1 <0>         0.0671
     58 H21        -7.1403    1.9098    4.9721 H         1 <0>         0.0638
     59 H22        -7.0926    0.3647    5.8547 H         1 <0>         0.0635
     60 H23        -2.0472   -5.3584    0.6958 H         1 <0>         0.0838
     61 H24        -2.7751   -5.8140   -0.8633 H         1 <0>         0.0800
     62 H25        -1.4140   -4.6679   -0.8176 H         1 <0>         0.0939
@<TRIPOS>BOND
     1    1    2 1
     2    1   40 1
     3    1   41 1
     4    1   42 1
     5    2    3 1
     6    2   43 1
     7    2   44 1
     8    3    4 1
     9    4    5 2
    10    4    6 1
    11    6   10 1
    12    6    7 2
    13    7    8 1
    14    7   39 1
    15    8    9 2
    16    9   10 1
    17    9   11 1
    18   11   30 am
    19   11   12 1
    20   12   14 1
    21   12   32 1
    22   12   13 1
    23   14   28 2
    24   14   15 1
    25   15   27 2
    26   15   16 1
    27   16   21 ar
    28   16   17 ar
    29   17   18 ar
    30   17   45 1
    31   18   19 ar
    32   18   46 1
    33   19   25 1
    34   19   20 ar
    35   20   21 ar
    36   20   22 1
    37   21   47 1
    38   22   23 1
    39   22   48 1
    40   22   49 1
    41   23   24 1
    42   23   25 1
    43   23   26 1
    44   26   50 1
    45   26   51 1
    46   26   52 1
    47   28   30 1
    48   28   29 1
    49   30   31 2
    50   32   37 ar
    51   32   33 ar
    52   33   34 ar
    53   33   53 1
    54   34   35 ar
    55   34   54 1
    56   35   36 ar
    57   35   38 1
    58   36   37 ar
    59   36   55 1
    60   37   56 1
    61   38   57 1
    62   38   58 1
    63   38   59 1
    64   39   60 1
    65   39   61 1
    66   39   62 1
@<TRIPOS>MOLECULE
ZINC39835263
   48    52     0     0     0
SMALL
USER_CHARGES

@<TRIPOS>ATOM
      1 C1          1.9233    2.6122    1.9176 C.2       1 <0>        -0.2261
      2 C2          2.6637    2.4714    0.7348 C.2       1 <0>        -0.1499
      3 C3          3.1728    1.1908    0.7406 C.2       1 <0>        -0.0674
      4 O1          2.7589    0.5869    1.8739 O.3       1 <0>        -0.1462
      5 C4          2.0076    1.4383    2.5839 C.2       1 <0>        -0.0261
      6 C5          4.0138    0.5912   -0.2998 C.2       1 <0>         0.5464
      7 O2          4.2471    1.2074   -1.3249 O.2       1 <0>        -0.4448
      8 C6          4.5745   -0.7504   -0.1068 C.2       1 <0>        -0.4834
      9 C7          5.8841   -1.0672    0.0245 C.2       1 <0>         0.2768
     10 C8          6.0155   -2.5260    0.2004 C.2       1 <0>         0.5141
     11 O3          7.0669   -3.1189    0.3448 O.2       1 <0>        -0.4818
     12 N1          4.8007   -3.1037    0.1779 N.am      1 <0>        -0.4976
     13 C9          3.8015   -2.0450   -0.0097 C.3       1 <0>         0.2688
     14 H1          3.1219   -2.0130    0.8419 H         1 <0>         0.0975
     15 C10         3.0293   -2.2844   -1.2815 C.ar      1 <0>        -0.0287
     16 C11         3.6773   -2.6809   -2.4413 C.ar      1 <0>        -0.1459
     17 C12         2.9360   -2.8910   -3.5887 C.ar      1 <0>         0.0968
     18 N2          1.6287   -2.7180   -3.5882 N.ar      1 <0>        -0.4884
     19 C13         0.9794   -2.3416   -2.5040 C.ar      1 <0>         0.0961
     20 C14         1.6532   -2.1189   -1.3180 C.ar      1 <0>        -0.1528
     21 C15         4.5380   -4.4618    0.3136 C.2       1 <0>         0.3232
     22 N3          3.3846   -5.1109    0.2973 N.2       1 <0>        -0.3118
     23 N4          3.3203   -6.3629    0.4358 N.2       1 <0>        -0.2479
     24 C16         4.4051   -7.1055    0.6062 C.2       1 <0>        -0.0321
     25 S1          5.6639   -5.8334    0.5524 S.3       1 <0>         0.0913
     26 S2          4.5633   -8.8475    0.8189 S.3       1 <0>         0.0466
     27 C17         2.8551   -9.4545    0.7539 C.3       1 <0>        -0.0742
     28 C18         2.8472  -10.9517    0.9253 C.ar      1 <0>        -0.0728
     29 C19         2.9428  -11.7744   -0.1815 C.ar      1 <0>        -0.0852
     30 C20         2.9356  -13.1476   -0.0250 C.ar      1 <0>        -0.1099
     31 C21         2.8327  -13.6988    1.2398 C.ar      1 <0>        -0.0280
     32 C22         2.7371  -12.8750    2.3472 C.ar      1 <0>        -0.1101
     33 C23         2.7501  -11.5019    2.1898 C.ar      1 <0>        -0.0854
     34 Cl1         2.8230  -15.4235    1.4372 Cl        1 <0>        -0.0693
     35 O4          6.9107   -0.1850   -0.0018 O.3       1 <0>        -0.6279
     36 H2          1.3895    3.4945    2.2385 H         1 <0>         0.1502
     37 H3          2.8064    3.2197   -0.0307 H         1 <0>         0.1547
     38 H4          1.5443    1.2226    3.5353 H         1 <0>         0.2034
     39 H5          4.7478   -2.8235   -2.4481 H         1 <0>         0.1233
     40 H6          3.4332   -3.1999   -4.4963 H         1 <0>         0.1514
     41 H7         -0.0919   -2.2098   -2.5421 H         1 <0>         0.1528
     42 H8          1.1152   -1.8155   -0.4321 H         1 <0>         0.1327
     43 H9          2.2753   -8.9941    1.5539 H         1 <0>         0.1087
     44 H10         2.4143   -9.1967   -0.2090 H         1 <0>         0.1087
     45 H11         3.0227  -11.3440   -1.1688 H         1 <0>         0.1382
     46 H12         3.0099  -13.7902   -0.8898 H         1 <0>         0.1371
     47 H13         2.6564  -13.3047    3.3347 H         1 <0>         0.1370
     48 H14         2.6803  -10.8586    3.0546 H         1 <0>         0.1381
@<TRIPOS>BOND
     1    1    5 2
     2    1    2 1
     3    1   36 1
     4    2    3 2
     5    2   37 1
     6    3    4 1
     7    3    6 1
     8    4    5 1
     9    5   38 1
    10    6    7 2
    11    6    8 1
    12    8   13 1
    13    8    9 2
    14    9   10 1
    15    9   35 1
    16   10   11 2
    17   10   12 am
    18   12   13 1
    19   12   21 1
    20   13   14 1
    21   13   15 1
    22   15   20 ar
    23   15   16 ar
    24   16   17 ar
    25   16   39 1
    26   17   18 ar
    27   17   40 1
    28   18   19 ar
    29   19   20 ar
    30   19   41 1
    31   20   42 1
    32   21   25 1
    33   21   22 2
    34   22   23 1
    35   23   24 2
    36   24   25 1
    37   24   26 1
    38   26   27 1
    39   27   28 1
    40   27   43 1
    41   27   44 1
    42   28   33 ar
    43   28   29 ar
    44   29   30 ar
    45   29   45 1
    46   30   31 ar
    47   30   46 1
    48   31   32 ar
    49   31   34 1
    50   32   33 ar
    51   32   47 1
    52   33   48 1
@<TRIPOS>MOLECULE
ZINC12523917
   55    59     0     0     0
SMALL
USER_CHARGES

@<TRIPOS>ATOM
      1 C1         -0.0187    1.5258    0.0104 C.3       1 <0>        -0.1356
      2 C2          0.0021   -0.0041    0.0020 C.3       1 <0>        -0.0067
      3 C3         -1.3834   -0.5548    0.2665 C.ar      1 <0>        -0.1594
      4 C4         -2.5634   -0.4170   -0.4380 C.ar      1 <0>        -0.0554
      5 C5         -3.7181   -1.0269    0.0161 C.ar      1 <0>        -0.1788
      6 C6         -3.6894   -1.7766    1.1780 C.ar      1 <0>        -0.0751
      7 C7         -2.5138   -1.9182    1.8840 C.ar      1 <0>        -0.1810
      8 C8         -1.3436   -1.3054    1.4322 C.ar      1 <0>         0.2039
      9 N1         -0.0613   -1.3224    1.9904 N.pl3     1 <0>        -0.6153
     10 C9          0.8418   -0.5347    1.1643 C.3       1 <0>         0.3366
     11 C10         1.4739    0.6199    1.9596 C.3       1 <0>        -0.1133
     12 C11         2.8170    0.0279    2.3478 C.ar      1 <0>        -0.1223
     13 C12         3.7642    0.4151    3.2690 C.ar      1 <0>        -0.1323
     14 C13         4.9255   -0.3317    3.4246 C.ar      1 <0>         0.2673
     15 C14         5.1215   -1.4658    2.6472 C.ar      1 <0>        -0.2347
     16 C15         4.1715   -1.8484    1.7238 C.ar      1 <0>        -0.0688
     17 C16         3.0076   -1.1016    1.5617 C.ar      1 <0>        -0.0147
     18 O1          1.9612   -1.2915    0.7059 O.3       1 <0>        -0.2986
     19 N2          5.8923    0.0568    4.3588 N.2       1 <0>        -1.0757
     20 S1          7.2746   -0.8368    4.5402 S.o2      1 <0>         2.5930
     21 O2          6.8779   -2.0966    5.0644 O.2       1 <0>        -1.0179
     22 O3          8.0015   -0.7117    3.3256 O.2       1 <0>        -1.0037
     23 C17         8.2410   -0.0538    5.7883 C.ar      1 <0>        -0.6162
     24 C18         8.4917   -0.7075    6.9803 C.ar      1 <0>         0.0458
     25 C19         9.2493   -0.0933    7.9596 C.ar      1 <0>        -0.0761
     26 C20         9.7569    1.1753    7.7478 C.ar      1 <0>        -0.0092
     27 C21         9.5074    1.8296    6.5564 C.ar      1 <0>        -0.1359
     28 C22         8.7537    1.2128    5.5734 C.ar      1 <0>         0.1011
     29 Cl1         8.4458    2.0313    4.0737 Cl        1 <0>         0.0035
     30 N3          9.5170   -0.7935    9.2358 N.pl3     1 <0>         0.0386
     31 O4          9.0729   -1.9026    9.4214 O.2       1 <0>        -0.1524
     32 O5         10.1796   -0.2564   10.0926 O.3       1 <0>        -0.1610
     33 C23         0.3154   -2.0258    3.2191 C.3       1 <0>         0.1081
     34 C24         0.5431   -0.5241   -1.3313 C.3       1 <0>        -0.1226
     35 H1          0.9794    1.9039   -0.2108 H         1 <0>         0.0682
     36 H2         -0.7184    1.8838   -0.7447 H         1 <0>         0.0639
     37 H3         -0.3318    1.8795    0.9927 H         1 <0>         0.0635
     38 H4         -2.5842    0.1686   -1.3452 H         1 <0>         0.1175
     39 H5         -4.6405   -0.9178   -0.5351 H         1 <0>         0.1186
     40 H6         -4.5912   -2.2525    1.5336 H         1 <0>         0.1195
     41 H7         -2.4982   -2.5052    2.7904 H         1 <0>         0.1155
     42 H8          1.6029    1.5015    1.3318 H         1 <0>         0.1061
     43 H9          0.8811    0.8554    2.8435 H         1 <0>         0.0863
     44 H10         3.6049    1.2984    3.8697 H         1 <0>         0.1159
     45 H11         6.0218   -2.0504    2.7663 H         1 <0>         0.1050
     46 H12         4.3313   -2.7315    1.1230 H         1 <0>         0.1085
     47 H13         8.0952   -1.6983    7.1465 H         1 <0>         0.1755
     48 H14        10.3483    1.6550    8.5137 H         1 <0>         0.1648
     49 H15         9.9037    2.8206    6.3912 H         1 <0>         0.1624
     50 H16        -0.5577   -2.5332    3.6295 H         1 <0>         0.0700
     51 H17         1.0899   -2.7592    2.9950 H         1 <0>         0.0598
     52 H18         0.6941   -1.3082    3.9469 H         1 <0>         0.0613
     53 H19         1.5623   -0.1652   -1.4746 H         1 <0>         0.0659
     54 H20         0.5393   -1.6140   -1.3247 H         1 <0>         0.0604
     55 H21        -0.0868   -0.1634   -2.1445 H         1 <0>         0.0563
@<TRIPOS>BOND
     1    1    2 1
     2    1   35 1
     3    1   36 1
     4    1   37 1
     5    2   10 1
     6    2    3 1
     7    2   34 1
     8    3    8 ar
     9    3    4 ar
    10    4    5 ar
    11    4   38 1
    12    5    6 ar
    13    5   39 1
    14    6    7 ar
    15    6   40 1
    16    7    8 ar
    17    7   41 1
    18    8    9 1
    19    9   10 1
    20    9   33 1
    21   10   18 1
    22   10   11 1
    23   11   12 1
    24   11   42 1
    25   11   43 1
    26   12   17 ar
    27   12   13 ar
    28   13   14 ar
    29   13   44 1
    30   14   15 ar
    31   14   19 1
    32   15   16 ar
    33   15   45 1
    34   16   17 ar
    35   16   46 1
    36   17   18 1
    37   19   20 1
    38   20   21 2
    39   20   22 2
    40   20   23 1
    41   23   28 ar
    42   23   24 ar
    43   24   25 ar
    44   24   47 1
    45   25   26 ar
    46   25   30 1
    47   26   27 ar
    48   26   48 1
    49   27   28 ar
    50   27   49 1
    51   28   29 1
    52   30   31 2
    53   30   32 1
    54   33   50 1
    55   33   51 1
    56   33   52 1
    57   34   53 1
    58   34   54 1
    59   34   55 1
@<TRIPOS>MOLECULE
ZINC63467849
   58    62     0     0     0
SMALL
USER_CHARGES

@<TRIPOS>ATOM
      1 C1         -0.0187    1.5258    0.0104 C.3       1 <0>        -0.1382
      2 C2          0.0021   -0.0041    0.0020 C.3       1 <0>        -0.0577
      3 C3         -1.4320   -0.5377    0.0359 C.3       1 <0>        -0.0746
      4 C4         -1.4072   -2.0449    0.1094 C.2       1 <0>         0.3127
      5 C5         -0.3220   -2.7031    0.6981 C.2       1 <0>        -0.3954
      6 C6         -0.2832   -4.2169    0.7165 C.3       1 <0>         0.0582
      7 H1          0.1927   -4.5830   -0.1933 H         1 <0>         0.0704
      8 C7         -1.7159   -4.7344    0.7905 C.3       1 <0>        -0.2166
      9 H2         -2.1141   -4.4950    1.7765 H         1 <0>         0.1199
     10 C8         -2.5579   -4.0326   -0.2394 C.2       1 <0>         0.4909
     11 N1         -3.3984   -4.7103   -0.9934 N.2       1 <0>        -0.6100
     12 C9         -3.4655   -6.0410   -0.9596 C.2       1 <0>         0.4301
     13 N2         -2.6533   -6.7748   -0.2082 N.2       1 <0>        -0.6820
     14 C10        -1.7839   -6.2175    0.6055 C.2       1 <0>         0.5168
     15 O1         -1.0237   -6.9333    1.2289 O.2       1 <0>        -0.4960
     16 S1         -4.6763   -6.8556   -1.9471 S.3       1 <0>         0.0159
     17 C11        -4.4138   -8.6165   -1.5994 C.3       1 <0>        -0.0721
     18 C12        -5.3985   -9.4373   -2.3916 C.ar      1 <0>        -0.0667
     19 C13        -6.6329   -9.7463   -1.8514 C.ar      1 <0>        -0.0873
     20 C14        -7.5365  -10.4990   -2.5776 C.ar      1 <0>        -0.1102
     21 C15        -7.2054  -10.9432   -3.8453 C.ar      1 <0>        -0.0312
     22 C16        -5.9698  -10.6336   -4.3854 C.ar      1 <0>        -0.1101
     23 C17        -5.0693   -9.8760   -3.6606 C.ar      1 <0>        -0.0868
     24 Cl1        -8.3396  -11.8891   -4.7578 Cl        1 <0>        -0.0733
     25 N3         -2.4021   -2.7261   -0.4271 N.2       1 <0>        -0.6006
     26 C18         0.4909   -4.6901    1.9197 C.ar      1 <0>         0.0879
     27 C19         0.0619   -4.3593    3.1915 C.ar      1 <0>        -0.1171
     28 C20         0.7719   -4.7934    4.2952 C.ar      1 <0>        -0.0466
     29 C21         1.9108   -5.5586    4.1272 C.ar      1 <0>        -0.0730
     30 C22         2.3394   -5.8902    2.8555 C.ar      1 <0>        -0.0437
     31 C23         1.6269   -5.4597    1.7519 C.ar      1 <0>        -0.0944
     32 N4          2.6717   -6.0226    5.3091 N.pl3     1 <0>         0.0484
     33 O2          2.2971   -5.7323    6.4213 O.2       1 <0>        -0.1836
     34 O3          3.6678   -6.6919    5.1622 O.3       1 <0>        -0.1819
     35 C24         0.7070   -2.0195    1.2499 C.2       1 <0>         0.3487
     36 O4          1.7200   -2.6992    1.8175 O.3       1 <0>        -0.5849
     37 C25         0.7425   -0.5154    1.2421 C.3       1 <0>        -0.1239
     38 C26         0.7096   -0.5013   -1.2602 C.3       1 <0>        -0.1464
     39 H3          1.0039    1.9031    0.0027 H         1 <0>         0.0582
     40 H4         -0.5459    1.8868   -0.8726 H         1 <0>         0.0592
     41 H5         -0.5289    1.8773    0.9072 H         1 <0>         0.0569
     42 H6         -1.9471   -0.1398    0.9103 H         1 <0>         0.0926
     43 H7         -1.9568   -0.2267   -0.8674 H         1 <0>         0.0945
     44 H8         -3.3985   -8.8952   -1.8815 H         1 <0>         0.1086
     45 H9         -4.5591   -8.8023   -0.5352 H         1 <0>         0.1072
     46 H10        -6.8911   -9.3999   -0.8616 H         1 <0>         0.1369
     47 H11        -8.5007  -10.7407   -2.1553 H         1 <0>         0.1354
     48 H12        -5.7107  -10.9803   -5.3749 H         1 <0>         0.1355
     49 H13        -4.1066   -9.6302   -4.0840 H         1 <0>         0.1373
     50 H14        -0.8279   -3.7614    3.3227 H         1 <0>         0.1261
     51 H15         0.4371   -4.5343    5.2888 H         1 <0>         0.1390
     52 H16         3.2294   -6.4878    2.7243 H         1 <0>         0.1400
     53 H17         1.9596   -5.7219    0.7584 H         1 <0>         0.1283
     54 H18         1.7777   -0.1752    1.2148 H         1 <0>         0.0852
     55 H19         0.2559   -0.1346    2.1401 H         1 <0>         0.0888
     56 H20         1.7326   -0.1253   -1.2753 H         1 <0>         0.0552
     57 H21         0.7230   -1.5912   -1.2637 H         1 <0>         0.0624
     58 H22         0.1772   -0.1416   -2.1407 H         1 <0>         0.0570
@<TRIPOS>BOND
     1    1    2 1
     2    1   39 1
     3    1   40 1
     4    1   41 1
     5    2   37 1
     6    2    3 1
     7    2   38 1
     8    3    4 1
     9    3   42 1
    10    3   43 1
    11    4   25 2
    12    4    5 1
    13    5    6 1
    14    5   35 2
    15    6    7 1
    16    6    8 1
    17    6   26 1
    18    8    9 1
    19    8   14 1
    20    8   10 1
    21   10   11 2
    22   10   25 1
    23   11   12 1
    24   12   13 2
    25   12   16 1
    26   13   14 1
    27   14   15 2
    28   16   17 1
    29   17   18 1
    30   17   44 1
    31   17   45 1
    32   18   23 ar
    33   18   19 ar
    34   19   20 ar
    35   19   46 1
    36   20   21 ar
    37   20   47 1
    38   21   22 ar
    39   21   24 1
    40   22   23 ar
    41   22   48 1
    42   23   49 1
    43   26   31 ar
    44   26   27 ar
    45   27   28 ar
    46   27   50 1
    47   28   29 ar
    48   28   51 1
    49   29   30 ar
    50   29   32 1
    51   30   31 ar
    52   30   52 1
    53   31   53 1
    54   32   33 2
    55   32   34 1
    56   35   36 1
    57   35   37 1
    58   37   54 1
    59   37   55 1
    60   38   56 1
    61   38   57 1
    62   38   58 1
@<TRIPOS>MOLECULE
ZINC19814155
   48    51     0     0     0
SMALL
USER_CHARGES
(5Z)-5-[[5-(2-chloro-5-nitro-phenyl)-2-furyl]methylene]-1-(2-ethylphenyl)-2-thioxo-hexahydropyrimidine-4,6-dione
@<TRIPOS>ATOM
      1 C1         -2.1506    0.8279   -1.6054 C.3       1 <0>        -0.1686
      2 C2         -1.6579    2.2271   -1.2307 C.3       1 <0>        -0.0788
      3 C3         -1.9663    2.4967    0.2195 C.ar      1 <0>        -0.0499
      4 C4         -3.1238    3.1655    0.5676 C.ar      1 <0>        -0.1149
      5 C5         -3.4044    3.4185    1.8975 C.ar      1 <0>        -0.1143
      6 C6         -2.5308    2.9978    2.8838 C.ar      1 <0>        -0.1190
      7 C7         -1.3746    2.3241    2.5425 C.ar      1 <0>        -0.0875
      8 C8         -1.0898    2.0688    1.2075 C.ar      1 <0>         0.1611
      9 N1          0.0825    1.3860    0.8581 N.am      1 <0>        -0.5041
     10 C9          1.2075    2.0896    0.6150 C.2       1 <0>         0.5498
     11 O1          1.2158    3.3036    0.7006 O.2       1 <0>        -0.4854
     12 C10         2.4249    1.3498    0.2435 C.2       1 <0>        -0.2484
     13 C11         3.6228    2.0084   -0.0214 C.2       1 <0>         0.0576
     14 C12         3.6470    3.4059   -0.1199 C.2       1 <0>         0.0158
     15 C13         4.6645    4.2378    0.3318 C.2       1 <0>        -0.1600
     16 C14         4.2804    5.5421    0.0320 C.2       1 <0>        -0.1691
     17 C15         3.0495    5.4693   -0.5891 C.2       1 <0>         0.0215
     18 O2          2.6881    4.1781   -0.6758 O.3       1 <0>        -0.1066
     19 C16         2.2647    6.6172   -1.0806 C.ar      1 <0>         0.0040
     20 C17         1.7542    6.6136   -2.3817 C.ar      1 <0>        -0.0216
     21 C18         1.0210    7.6899   -2.8342 C.ar      1 <0>        -0.0400
     22 C19         0.7898    8.7733   -2.0039 C.ar      1 <0>        -0.0374
     23 C20         1.2916    8.7855   -0.7149 C.ar      1 <0>        -0.1065
     24 C21         2.0225    7.7123   -0.2451 C.ar      1 <0>         0.0305
     25 Cl1         2.6451    7.7255    1.3753 Cl        1 <0>        -0.0193
     26 N2          0.4799    7.6874   -4.2119 N.pl3     1 <0>         0.0279
     27 O3          0.6826    6.7353   -4.9440 O.2       1 <0>        -0.1499
     28 O4         -0.1681    8.6373   -4.6135 O.3       1 <0>        -0.1520
     29 C22         2.3210   -0.1172    0.1646 C.2       1 <0>         0.5299
     30 O5          3.2849   -0.7966   -0.1359 O.3       1 <0>        -0.5147
     31 N3          1.1289   -0.6877    0.4348 N.2       1 <0>        -0.6218
     32 C23         0.0594    0.0488    0.7675 C.2       1 <0>         0.5389
     33 S1         -1.4132   -0.7609    1.0943 S.2       1 <0>        -0.6587
     34 H1         -1.9254    0.6312   -2.6640 H         1 <0>         0.0439
     35 H2         -3.2369    0.7663   -1.4440 H         1 <0>         0.0535
     36 H3         -1.6436    0.0803   -0.9776 H         1 <0>         0.0998
     37 H4         -0.5716    2.2887   -1.3921 H         1 <0>         0.0552
     38 H5         -2.1648    2.9747   -1.8585 H         1 <0>         0.0643
     39 H6         -3.8081    3.4950   -0.2003 H         1 <0>         0.1211
     40 H7         -4.3078    3.9455    2.1669 H         1 <0>         0.1199
     41 H8         -2.7529    3.1966    3.9218 H         1 <0>         0.1218
     42 H9         -0.6929    1.9958    3.3131 H         1 <0>         0.1166
     43 H10         4.5501    1.4316   -0.1533 H         1 <0>         0.1814
     44 H11         5.5773    3.9315    0.8212 H         1 <0>         0.1620
     45 H12         4.8398    6.4411    0.2451 H         1 <0>         0.1549
     46 H13         1.9334    5.7695   -3.0310 H         1 <0>         0.1658
     47 H14         0.2149    9.6135   -2.3645 H         1 <0>         0.1667
     48 H15         1.1071    9.6341   -0.0729 H         1 <0>         0.1647
@<TRIPOS>BOND
     1    1    2 1
     2    1   34 1
     3    1   35 1
     4    1   36 1
     5    2    3 1
     6    2   37 1
     7    2   38 1
     8    3    8 ar
     9    3    4 ar
    10    4    5 ar
    11    4   39 1
    12    5    6 ar
    13    5   40 1
    14    6    7 ar
    15    6   41 1
    16    7    8 ar
    17    7   42 1
    18    8    9 1
    19    9   32 1
    20    9   10 am
    21   10   11 2
    22   10   12 1
    23   12   13 2
    24   12   29 1
    25   13   14 1
    26   13   43 1
    27   14   18 1
    28   14   15 2
    29   15   16 1
    30   15   44 1
    31   16   17 2
    32   16   45 1
    33   17   18 1
    34   17   19 1
    35   19   24 ar
    36   19   20 ar
    37   20   21 ar
    38   20   46 1
    39   21   22 ar
    40   21   26 1
    41   22   23 ar
    42   22   47 1
    43   23   24 ar
    44   23   48 1
    45   24   25 1
    46   26   27 2
    47   26   28 1
    48   29   30 1
    49   29   31 2
    50   31   32 1
    51   32   33 2
@<TRIPOS>MOLECULE
ZINC24193029
   51    54     0     0     0
SMALL
USER_CHARGES
(5S)-5-(4-chlorophenyl)-3-hydroxy-1-(5-propyl-1,3,4-thiadiazol-2-yl)-4-(p-tolylsulfonyl)-5H-pyrrol-2-one
@<TRIPOS>ATOM
      1 C1         -4.7810    2.4033   -8.3647 C.3       1 <0>        -0.1519
      2 C2         -4.5133    1.9381   -6.9320 C.3       1 <0>        -0.1220
      3 C3         -3.8008    3.0500   -6.1594 C.3       1 <0>        -0.0178
      4 C4         -3.5372    2.5918   -4.7482 C.2       1 <0>         0.0278
      5 N1         -2.4953    1.9620   -4.2427 N.2       1 <0>        -0.2500
      6 N2         -2.4284    1.6452   -3.0237 N.2       1 <0>        -0.3170
      7 C5         -3.4057    1.9274   -2.1731 C.2       1 <0>         0.3288
      8 S1         -4.5533    2.7404   -3.2814 S.3       1 <0>         0.0081
      9 N3         -3.5116    1.6627   -0.8132 N.am      1 <0>        -0.4974
     10 C6         -2.5136    0.9789    0.0192 C.3       1 <0>         0.2863
     11 H1         -2.3125   -0.0265   -0.3793 H         1 <0>         0.0928
     12 C7         -3.0930    0.9375    1.4140 C.2       1 <0>        -0.9429
     13 C8         -4.2835    1.5350    1.3592 C.2       1 <0>         0.3332
     14 C9         -4.5479    1.9860   -0.0146 C.2       1 <0>         0.5131
     15 O1         -5.5539    2.5650   -0.3775 O.2       1 <0>        -0.4783
     16 O2         -5.1254    1.7019    2.4140 O.3       1 <0>        -0.5856
     17 S2         -2.3388    0.2326    2.8419 S.o2      1 <0>         2.6204
     18 O3         -1.0109    0.7362    2.8902 O.2       1 <0>        -0.9563
     19 O4         -3.2575    0.4030    3.9125 O.2       1 <0>        -0.9364
     20 C10        -2.2096   -1.5019    2.5604 C.ar      1 <0>        -0.6563
     21 C11        -3.2364   -2.3432    2.9464 C.ar      1 <0>        -0.0153
     22 C12        -3.1369   -3.7035    2.7215 C.ar      1 <0>        -0.1454
     23 C13        -2.0066   -4.2237    2.1193 C.ar      1 <0>        -0.0456
     24 C14        -0.9778   -3.3830    1.7376 C.ar      1 <0>        -0.1458
     25 C15        -1.0791   -2.0222    1.9585 C.ar      1 <0>        -0.0248
     26 C16        -1.8961   -5.7072    1.8784 C.3       1 <0>        -0.1213
     27 C17        -1.2191    1.7505    0.0173 C.ar      1 <0>        -0.0673
     28 C18        -0.0126    1.0758    0.0080 C.ar      1 <0>        -0.0743
     29 C19         1.1749    1.7830    0.0004 C.ar      1 <0>        -0.1020
     30 C20         1.1560    3.1663    0.0076 C.ar      1 <0>        -0.0325
     31 C21        -0.0518    3.8410    0.0223 C.ar      1 <0>        -0.1093
     32 C22        -1.2386    3.1328    0.0298 C.ar      1 <0>        -0.0852
     33 Cl1         2.6472    4.0552   -0.0013 Cl        1 <0>        -0.0856
     34 H2         -5.2933    1.6038   -8.9201 H         1 <0>         0.0581
     35 H3         -3.8265    2.6390   -8.8580 H         1 <0>         0.0581
     36 H4         -5.4157    3.3015   -8.3460 H         1 <0>         0.0568
     37 H5         -5.4678    1.7024   -6.4387 H         1 <0>         0.0667
     38 H6         -3.8786    1.0399   -6.9507 H         1 <0>         0.0712
     39 H7         -2.8463    3.2856   -6.6527 H         1 <0>         0.1020
     40 H8         -4.4354    3.9483   -6.1407 H         1 <0>         0.0918
     41 H9         -4.1177   -1.9372    3.4206 H         1 <0>         0.1418
     42 H10        -3.9408   -4.3602    3.0194 H         1 <0>         0.1272
     43 H11        -0.0947   -3.7894    1.2671 H         1 <0>         0.1272
     44 H12        -0.2751   -1.3654    1.6607 H         1 <0>         0.1384
     45 H13        -0.9339   -5.9293    1.3938 H         1 <0>         0.0672
     46 H14        -2.7193   -6.0351    1.2266 H         1 <0>         0.0730
     47 H15        -1.9545   -6.2400    2.8390 H         1 <0>         0.0727
     48 H16         0.0021   -0.0041    0.0020 H         1 <0>         0.1280
     49 H17         2.1175    1.2558   -0.0107 H         1 <0>         0.1311
     50 H18        -0.0672    4.9209    0.0275 H         1 <0>         0.1274
     51 H19        -2.1815    3.6593    0.0409 H         1 <0>         0.1170
@<TRIPOS>BOND
     1    1    2 1
     2    1   34 1
     3    1   35 1
     4    1   36 1
     5    2    3 1
     6    2   37 1
     7    2   38 1
     8    3    4 1
     9    3   39 1
    10    3   40 1
    11    4    8 1
    12    4    5 2
    13    5    6 1
    14    6    7 2
    15    7    8 1
    16    7    9 1
    17    9   14 am
    18    9   10 1
    19   10   11 1
    20   10   12 1
    21   10   27 1
    22   12   13 2
    23   12   17 1
    24   13   14 1
    25   13   16 1
    26   14   15 2
    27   17   18 2
    28   17   19 2
    29   17   20 1
    30   20   25 ar
    31   20   21 ar
    32   21   22 ar
    33   21   41 1
    34   22   23 ar
    35   22   42 1
    36   23   24 ar
    37   23   26 1
    38   24   25 ar
    39   24   43 1
    40   25   44 1
    41   26   45 1
    42   26   46 1
    43   26   47 1
    44   27   32 ar
    45   27   28 ar
    46   28   29 ar
    47   28   48 1
    48   29   30 ar
    49   29   49 1
    50   30   31 ar
    51   30   33 1
    52   31   32 ar
    53   31   50 1
    54   32   51 1
@<TRIPOS>MOLECULE
ZINC35621429
   70    74     0     0     0
SMALL
USER_CHARGES

@<TRIPOS>ATOM
      1 C1          0.1476    1.9359    0.4644 C.3       1 <0>        -0.1480
      2 C2          0.0467    0.4196    0.2871 C.3       1 <0>        -0.1147
      3 C3          0.7866    0.0046   -0.9862 C.3       1 <0>        -0.0318
      4 C4          0.7763   -1.4975   -1.1062 C.2       1 <0>         0.1457
      5 C5          1.7484   -2.3750   -0.5790 C.2       1 <0>        -0.3740
      6 C6          1.3607   -3.6647   -0.9134 C.2       1 <0>         0.4462
      7 N1          0.2014   -3.5638   -1.6138 N.pl3     1 <0>        -0.3861
      8 N2         -0.1359   -2.2091   -1.7105 N.2       1 <0>        -0.3609
      9 C7         -0.5334   -4.6329   -2.1440 C.ar      1 <0>         0.2086
     10 C8          0.1237   -5.7545   -2.6319 C.ar      1 <0>        -0.1264
     11 C9         -0.6032   -6.8065   -3.1539 C.ar      1 <0>        -0.1046
     12 C10        -1.9841   -6.7436   -3.1909 C.ar      1 <0>        -0.1545
     13 C11        -2.6414   -5.6277   -2.7062 C.ar      1 <0>        -0.1091
     14 C12        -1.9203   -4.5751   -2.1773 C.ar      1 <0>        -0.1378
     15 O1          2.0158   -4.8093   -0.6005 O.3       1 <0>        -0.6948
     16 C13         2.9525   -1.9920    0.1854 C.2       1 <0>         0.0206
     17 C14         3.0754   -1.9345    1.5477 C.2       1 <0>         0.0967
     18 C15         4.4594   -1.5029    1.8245 C.2       1 <0>         0.5495
     19 O2          4.9437   -1.3378    2.9264 O.2       1 <0>        -0.4839
     20 N3          5.0946   -1.3234    0.6534 N.am      1 <0>        -0.5886
     21 C16         4.2664   -1.6007   -0.3688 C.2       1 <0>         0.5524
     22 O3          4.5487   -1.5369   -1.5484 O.2       1 <0>        -0.4594
     23 C17         6.4883   -0.8947    0.5117 C.3       1 <0>         0.1459
     24 C18         6.5409    0.4180   -0.2725 C.3       1 <0>        -0.1332
     25 C19         7.9965    0.8656   -0.4205 C.3       1 <0>        -0.1120
     26 C20         8.7866   -0.2086   -1.1706 C.3       1 <0>        -0.1222
     27 C21         8.7340   -1.5213   -0.3864 C.3       1 <0>        -0.1120
     28 C22         7.2784   -1.9689   -0.2384 C.3       1 <0>        -0.1355
     29 N4          2.0919   -2.2243    2.4842 N.pl3     1 <0>        -0.6104
     30 C23         1.5885   -1.1814    3.3883 C.3       1 <0>         0.1444
     31 C24         1.7091   -1.6799    4.8318 C.3       1 <0>        -0.1299
     32 C25         0.9926   -3.0258    4.9640 C.3       1 <0>        -0.0889
     33 C26         1.6557   -4.0514    4.0417 C.3       1 <0>        -0.1295
     34 C27         1.5304   -3.5783    2.5855 C.3       1 <0>         0.1466
     35 C28         1.0813   -3.5103    6.4125 C.3       1 <0>        -0.1442
     36 H1          1.1960    2.2235    0.5433 H         1 <0>         0.0505
     37 H2         -0.3018    2.4330   -0.3953 H         1 <0>         0.0510
     38 H3         -0.3795    2.2316    1.3715 H         1 <0>         0.0501
     39 H4          0.4961   -0.0774    1.1468 H         1 <0>         0.0670
     40 H5         -1.0017    0.1320    0.2082 H         1 <0>         0.0605
     41 H6          0.2912    0.4418   -1.8531 H         1 <0>         0.0671
     42 H7          1.8165    0.3584   -0.9395 H         1 <0>         0.0667
     43 H8          1.2022   -5.8041   -2.6036 H         1 <0>         0.1339
     44 H9         -0.0926   -7.6791   -3.5338 H         1 <0>         0.1189
     45 H10        -2.5503   -7.5674   -3.5995 H         1 <0>         0.1146
     46 H11        -3.7200   -5.5811   -2.7371 H         1 <0>         0.1176
     47 H12        -2.4345   -3.7061   -1.7942 H         1 <0>         0.1236
     48 H13         6.9248   -0.7457    1.4993 H         1 <0>         0.0978
     49 H14         6.1044    0.2690   -1.2601 H         1 <0>         0.0807
     50 H15         5.9780    1.1833    0.2619 H         1 <0>         0.0651
     51 H16         8.0340    1.8008   -0.9791 H         1 <0>         0.0660
     52 H17         8.4330    1.0146    0.5671 H         1 <0>         0.0624
     53 H18         8.3501   -0.3576   -2.1582 H         1 <0>         0.0656
     54 H19         9.8236    0.1103   -1.2760 H         1 <0>         0.0620
     55 H20         9.2969   -2.2865   -0.9208 H         1 <0>         0.0662
     56 H21         9.1705   -1.3723    0.6012 H         1 <0>         0.0623
     57 H22         7.2409   -2.9041    0.3203 H         1 <0>         0.0655
     58 H23         6.8419   -2.1179   -1.2260 H         1 <0>         0.0813
     59 H24         2.1797   -0.2740    3.2645 H         1 <0>         0.0665
     60 H25         0.5433   -0.9730    3.1599 H         1 <0>         0.0554
     61 H26         2.7616   -1.8014    5.0880 H         1 <0>         0.0679
     62 H27         1.2513   -0.9562    5.5061 H         1 <0>         0.0634
     63 H28        -0.0543   -2.9088    4.6839 H         1 <0>         0.0673
     64 H29         2.7086   -4.1505    4.3054 H         1 <0>         0.0621
     65 H30         1.1597   -5.0156    4.1537 H         1 <0>         0.0651
     66 H31         0.4806   -3.5614    2.2929 H         1 <0>         0.0508
     67 H32         2.0833   -4.2530    1.9319 H         1 <0>         0.0873
     68 H33         0.6080   -2.7806    7.0694 H         1 <0>         0.0503
     69 H34         0.5710   -4.4689    6.5069 H         1 <0>         0.0512
     70 H35         2.1281   -3.6268    6.6932 H         1 <0>         0.0519
@<TRIPOS>BOND
     1    1    2 1
     2    1   36 1
     3    1   37 1
     4    1   38 1
     5    2    3 1
     6    2   39 1
     7    2   40 1
     8    3    4 1
     9    3   41 1
    10    3   42 1
    11    4    8 2
    12    4    5 1
    13    5    6 2
    14    5   16 1
    15    6    7 1
    16    6   15 1
    17    7    8 1
    18    7    9 1
    19    9   14 ar
    20    9   10 ar
    21   10   11 ar
    22   10   43 1
    23   11   12 ar
    24   11   44 1
    25   12   13 ar
    26   12   45 1
    27   13   14 ar
    28   13   46 1
    29   14   47 1
    30   16   21 1
    31   16   17 2
    32   17   18 1
    33   17   29 1
    34   18   19 2
    35   18   20 am
    36   20   21 am
    37   20   23 1
    38   21   22 2
    39   23   28 1
    40   23   24 1
    41   23   48 1
    42   24   25 1
    43   24   49 1
    44   24   50 1
    45   25   26 1
    46   25   51 1
    47   25   52 1
    48   26   27 1
    49   26   53 1
    50   26   54 1
    51   27   28 1
    52   27   55 1
    53   27   56 1
    54   28   57 1
    55   28   58 1
    56   29   34 1
    57   29   30 1
    58   30   31 1
    59   30   59 1
    60   30   60 1
    61   31   32 1
    62   31   61 1
    63   31   62 1
    64   32   33 1
    65   32   35 1
    66   32   63 1
    67   33   34 1
    68   33   64 1
    69   33   65 1
    70   34   66 1
    71   34   67 1
    72   35   68 1
    73   35   69 1
    74   35   70 1
@<TRIPOS>MOLECULE
ZINC14250487
   61    66     0     0     0
SMALL
USER_CHARGES

@<TRIPOS>ATOM
      1 C1         -0.3372    1.4894    0.1306 C.3       1 <0>        -0.1100
      2 C2         -0.2471   -0.0145    0.0960 C.ar      1 <0>        -0.0960
      3 C3         -0.2278   -0.6756   -1.1193 C.ar      1 <0>        -0.1152
      4 C4         -0.1455   -2.0522   -1.1580 C.ar      1 <0>        -0.0859
      5 C5         -0.0815   -2.7781    0.0325 C.ar      1 <0>         0.0196
      6 C6         -0.1014   -2.1050    1.2551 C.ar      1 <0>        -0.1196
      7 C7         -0.1783   -0.7278    1.2796 C.ar      1 <0>        -0.1115
      8 C8          0.0064   -4.2535   -0.0014 C.2       1 <0>         0.1528
      9 N1         -0.3222   -5.0317   -1.0062 N.2       1 <0>        -0.2711
     10 N2         -0.1185   -6.2614   -0.6934 N.2       1 <0>        -0.3398
     11 C9          0.3528   -6.3436    0.5309 C.2       1 <0>         0.3900
     12 S1          0.7817   -7.8217    1.3887 S.3       1 <0>        -0.7994
     13 N3          0.4536   -5.0695    1.0120 N.pl3     1 <0>        -0.4741
     14 C10         0.9347   -4.6576    2.3331 C.3       1 <0>         0.0997
     15 C11        -0.2143   -4.6563    3.3082 C.2       1 <0>         0.5143
     16 O1         -1.3256   -4.9686    2.9363 O.2       1 <0>        -0.5018
     17 N4         -0.0069   -4.3080    4.5935 N.am      1 <0>        -0.6125
     18 C12         1.3267   -3.9187    5.0736 C.3       1 <0>         0.1494
     19 C13         1.2050   -2.5758    5.7534 C.ar      1 <0>        -0.0903
     20 C14         2.3450   -1.7960    5.8710 C.ar      1 <0>        -0.1052
     21 C15         2.2871   -0.5568    6.4853 C.ar      1 <0>         0.0508
     22 C16         1.0734   -0.0974    6.9836 C.ar      1 <0>         0.0523
     23 C17        -0.0583   -0.8834    6.8654 C.ar      1 <0>        -0.1104
     24 C18         0.0001   -2.1299    6.2482 C.ar      1 <0>        -0.0396
     25 C19        -1.2792   -2.9140    6.1614 C.3       1 <0>        -0.0319
     26 C20        -1.1036   -4.2968    5.5659 C.3       1 <0>         0.1253
     27 C21        -2.2954   -2.1213    5.3101 C.3       1 <0>        -0.1127
     28 C22        -3.6498   -2.3454    6.0262 C.3       1 <0>        -0.1252
     29 C23        -3.2538   -2.3122    7.5231 C.3       1 <0>        -0.1231
     30 C24        -1.8920   -3.0343    7.5702 C.3       1 <0>        -0.1130
     31 O2          0.9849    1.1216    7.5833 O.3       1 <0>        -0.3080
     32 C25         2.2130    1.7167    8.0157 C.3       1 <0>         0.0211
     33 C26         3.2375    1.5859    6.8807 C.3       1 <0>         0.0209
     34 O3          3.4162    0.1942    6.5962 O.3       1 <0>        -0.3060
     35 H1          0.6667    1.9139    0.1166 H         1 <0>         0.0667
     36 H2         -0.8921    1.8402   -0.7395 H         1 <0>         0.0645
     37 H3         -0.8512    1.8018    1.0396 H         1 <0>         0.0625
     38 H4         -0.2777   -0.1127   -2.0397 H         1 <0>         0.1238
     39 H5         -0.1309   -2.5670   -2.1072 H         1 <0>         0.1339
     40 H6         -0.0521   -2.6609    2.1797 H         1 <0>         0.1162
     41 H7         -0.1893   -0.2055    2.2249 H         1 <0>         0.1187
     42 H8          1.7002   -5.3545    2.6745 H         1 <0>         0.1269
     43 H9          1.3583   -3.6553    2.2692 H         1 <0>         0.1110
     44 H10         1.6932   -4.6595    5.7843 H         1 <0>         0.0929
     45 H11         2.0142   -3.8440    4.2310 H         1 <0>         0.0967
     46 H12         3.2848   -2.1578    5.4809 H         1 <0>         0.1386
     47 H13        -0.9992   -0.5257    7.2569 H         1 <0>         0.1344
     48 H14        -2.0278   -4.5934    5.0701 H         1 <0>         0.1001
     49 H15        -0.8838   -5.0047    6.3650 H         1 <0>         0.0710
     50 H16        -2.0400   -1.0617    5.3002 H         1 <0>         0.0688
     51 H17        -2.3313   -2.5153    4.2944 H         1 <0>         0.0725
     52 H18        -4.3477   -1.5412    5.7933 H         1 <0>         0.0671
     53 H19        -4.0722   -3.3142    5.7597 H         1 <0>         0.0703
     54 H20        -3.1521   -1.2832    7.8680 H         1 <0>         0.0642
     55 H21        -3.9897   -2.8461    8.1243 H         1 <0>         0.0667
     56 H22        -2.0348   -4.0840    7.8266 H         1 <0>         0.0719
     57 H23        -1.2412   -2.5561    8.3022 H         1 <0>         0.0711
     58 H24         2.0505    2.7700    8.2444 H         1 <0>         0.1207
     59 H25         2.5794    1.1998    8.9027 H         1 <0>         0.0765
     60 H26         2.8690    2.0984    5.9920 H         1 <0>         0.0773
     61 H27         4.1870    2.0227    7.1903 H         1 <0>         0.1212
@<TRIPOS>BOND
     1    1    2 1
     2    1   35 1
     3    1   36 1
     4    1   37 1
     5    2    7 ar
     6    2    3 ar
     7    3    4 ar
     8    3   38 1
     9    4    5 ar
    10    4   39 1
    11    5    6 ar
    12    5    8 1
    13    6    7 ar
    14    6   40 1
    15    7   41 1
    16    8   13 1
    17    8    9 2
    18    9   10 1
    19   10   11 2
    20   11   12 1
    21   11   13 1
    22   13   14 1
    23   14   15 1
    24   14   42 1
    25   14   43 1
    26   15   16 2
    27   15   17 am
    28   17   26 1
    29   17   18 1
    30   18   19 1
    31   18   44 1
    32   18   45 1
    33   19   24 ar
    34   19   20 ar
    35   20   21 ar
    36   20   46 1
    37   21   34 1
    38   21   22 ar
    39   22   23 ar
    40   22   31 1
    41   23   24 ar
    42   23   47 1
    43   24   25 1
    44   25   30 1
    45   25   26 1
    46   25   27 1
    47   26   48 1
    48   26   49 1
    49   27   28 1
    50   27   50 1
    51   27   51 1
    52   28   29 1
    53   28   52 1
    54   28   53 1
    55   29   30 1
    56   29   54 1
    57   29   55 1
    58   30   56 1
    59   30   57 1
    60   31   32 1
    61   32   33 1
    62   32   58 1
    63   32   59 1
    64   33   34 1
    65   33   60 1
    66   33   61 1
@<TRIPOS>MOLECULE
ZINC64790533
   52    56     0     0     0
SMALL
USER_CHARGES

@<TRIPOS>ATOM
      1 C1         -0.0167    1.3784    0.0096 C.ar      1 <0>        -0.1752
      2 C2          1.1698    2.0883    0.0021 C.ar      1 <0>        -0.0834
      3 C3          2.3773    1.4175   -0.0134 C.ar      1 <0>        -0.1571
      4 C4          2.3989    0.0304   -0.0210 C.ar      1 <0>         0.1411
      5 C5          1.2070   -0.6796   -0.0130 C.ar      1 <0>        -0.2188
      6 C6          0.0021   -0.0041    0.0020 C.ar      1 <0>        -0.0812
      7 O1          3.5855   -0.6319   -0.0368 O.3       1 <0>        -0.2783
      8 C7          3.5315   -2.0598   -0.0438 C.3       1 <0>         0.1024
      9 C8          4.9322   -2.6155   -0.0612 C.2       1 <0>         0.4117
     10 O2          5.1283   -3.9496   -0.0703 O.3       1 <0>        -0.6830
     11 N1          5.9510   -1.8090   -0.0674 N.2       1 <0>        -0.6074
     12 C9          7.2265   -2.3150   -0.0832 C.2       1 <0>         0.4591
     13 N2          7.5462   -3.6182   -0.0993 N.2       1 <0>        -0.4609
     14 C10         8.8485   -3.7519   -0.1088 C.2       1 <0>         0.3818
     15 N3          9.3955   -2.4968   -0.1070 N.pl3     1 <0>        -0.4244
     16 N4          8.3358   -1.5962   -0.0908 N.2       1 <0>        -0.3258
     17 C11        10.8400   -2.2659   -0.1329 C.3       1 <0>         0.2121
     18 H1         11.0757   -1.3459    0.4019 H         1 <0>         0.1182
     19 C12        11.5222   -3.4545    0.5548 C.3       1 <0>        -0.1378
     20 C13        10.8983   -4.7543    0.1315 C.2       1 <0>         0.2113
     21 N5          9.6258   -4.8678   -0.1402 N.2       1 <0>        -0.4007
     22 C14        11.7541   -5.9452    0.0181 C.ar      1 <0>        -0.0533
     23 C15        13.1202   -5.8591    0.3070 C.ar      1 <0>        -0.0792
     24 C16        13.9160   -6.9792    0.1986 C.ar      1 <0>        -0.1163
     25 C17        13.3661   -8.1883   -0.1954 C.ar      1 <0>        -0.0196
     26 C18        12.0140   -8.2812   -0.4831 C.ar      1 <0>        -0.1156
     27 C19        11.2048   -7.1708   -0.3735 C.ar      1 <0>        -0.0551
     28 Cl1        14.3763   -9.5937   -0.3298 Cl        1 <0>        -0.0709
     29 C20        11.3136   -2.1612   -1.5597 C.ar      1 <0>        -0.1138
     30 C21        11.1283   -3.2204   -2.4285 C.ar      1 <0>        -0.0715
     31 C22        11.5618   -3.1254   -3.7373 C.ar      1 <0>        -0.1501
     32 C23        12.1819   -1.9686   -4.1783 C.ar      1 <0>         0.1032
     33 C24        12.3670   -0.9084   -3.3073 C.ar      1 <0>        -0.1547
     34 C25        11.9279   -1.0038   -2.0003 C.ar      1 <0>        -0.0654
     35 F1         12.6065   -1.8747   -5.4574 F         1 <0>        -0.1403
     36 H2         -0.9596    1.9047    0.0260 H         1 <0>         0.1166
     37 H3          1.1525    3.1682    0.0080 H         1 <0>         0.1231
     38 H4          3.3038    1.9724   -0.0200 H         1 <0>         0.1305
     39 H5          1.2211   -1.7595   -0.0193 H         1 <0>         0.1276
     40 H6         -0.9260   -0.5563    0.0082 H         1 <0>         0.1189
     41 H7          3.0134   -2.4083    0.8497 H         1 <0>         0.0732
     42 H8          2.9951   -2.3988   -0.9302 H         1 <0>         0.0731
     43 H9         12.5796   -3.4622    0.2901 H         1 <0>         0.1160
     44 H10        11.4256   -3.3463    1.6351 H         1 <0>         0.1101
     45 H11        13.5503   -4.9171    0.6139 H         1 <0>         0.1407
     46 H12        14.9709   -6.9141    0.4209 H         1 <0>         0.1379
     47 H13        11.5922   -9.2269   -0.7896 H         1 <0>         0.1385
     48 H14        10.1502   -7.2456   -0.5938 H         1 <0>         0.1511
     49 H15        10.6449   -4.1227   -2.0842 H         1 <0>         0.1303
     50 H16        11.4172   -3.9531   -4.4157 H         1 <0>         0.1359
     51 H17        12.8509   -0.0057   -3.6501 H         1 <0>         0.1377
     52 H18        12.0682   -0.1752   -1.3219 H         1 <0>         0.1375
@<TRIPOS>BOND
     1    1    6 ar
     2    1    2 ar
     3    1   36 1
     4    2    3 ar
     5    2   37 1
     6    3    4 ar
     7    3   38 1
     8    4    5 ar
     9    4    7 1
    10    5    6 ar
    11    5   39 1
    12    6   40 1
    13    7    8 1
    14    8    9 1
    15    8   41 1
    16    8   42 1
    17    9   10 1
    18    9   11 2
    19   11   12 1
    20   12   16 2
    21   12   13 1
    22   13   14 2
    23   14   15 1
    24   14   21 1
    25   15   16 1
    26   15   17 1
    27   17   18 1
    28   17   29 1
    29   17   19 1
    30   19   20 1
    31   19   43 1
    32   19   44 1
    33   20   21 2
    34   20   22 1
    35   22   27 ar
    36   22   23 ar
    37   23   24 ar
    38   23   45 1
    39   24   25 ar
    40   24   46 1
    41   25   26 ar
    42   25   28 1
    43   26   27 ar
    44   26   47 1
    45   27   48 1
    46   29   34 ar
    47   29   30 ar
    48   30   31 ar
    49   30   49 1
    50   31   32 ar
    51   31   50 1
    52   32   33 ar
    53   32   35 1
    54   33   34 ar
    55   33   51 1
    56   34   52 1
@<TRIPOS>MOLECULE
ZINC20074961
   40    43     0     0     0
SMALL
USER_CHARGES
2-[(Z)-[3-(1,3-benzothiazol-2-yl)-4-hydroxy-phenyl]iminomethyl]-6-bromo-4-nitro-phenol
@<TRIPOS>ATOM
      1 C1          4.7177    5.4613   -4.1813 C.ar      1 <0>        -0.1145
      2 C2          4.1976    4.1829   -4.0343 C.ar      1 <0>        -0.1056
      3 C3          2.9406    4.0223   -3.4816 C.ar      1 <0>        -0.0654
      4 C4          2.2296    5.1295   -3.0883 C.ar      1 <0>        -0.1487
      5 C5          2.7322    6.4451   -3.2250 C.ar      1 <0>         0.0888
      6 C6          4.0221    6.5640   -3.7957 C.ar      1 <0>        -0.0638
      7 N1          1.9187    7.4290   -2.7941 N.2       1 <0>        -0.4846
      8 C7          0.7323    7.1906   -2.2784 C.2       1 <0>         0.2420
      9 S1          0.6326    5.4079   -2.3617 S.3       1 <0>        -0.0231
     10 C8         -0.2663    8.1519   -1.7667 C.ar      1 <0>        -0.0546
     11 C9         -1.4780    7.6943   -1.2543 C.ar      1 <0>        -0.0660
     12 C10        -2.4145    8.6074   -0.7732 C.ar      1 <0>         0.0687
     13 C11        -2.1352    9.9773   -0.8065 C.ar      1 <0>        -0.0729
     14 C12        -0.9355   10.4283   -1.3140 C.ar      1 <0>        -0.2024
     15 C13         0.0051    9.5265   -1.7902 C.ar      1 <0>         0.1987
     16 O1          1.1871    9.9763   -2.2837 O.3       1 <0>        -0.4736
     17 N2         -3.6068    8.1637   -0.2680 N.2       1 <0>        -0.5206
     18 C14        -3.9544    8.4733    0.9496 C.2       1 <0>         0.2729
     19 C15        -2.9893    9.1274    1.8459 C.ar      1 <0>        -0.2703
     20 C16        -1.6186    8.8927    1.6957 C.ar      1 <0>         0.0333
     21 C17        -0.7198    9.5088    2.5390 C.ar      1 <0>        -0.1695
     22 C18        -1.1670   10.3600    3.5363 C.ar      1 <0>         0.0276
     23 C19        -2.5185   10.6015    3.6960 C.ar      1 <0>        -0.2100
     24 C20        -3.4375    9.9949    2.8531 C.ar      1 <0>         0.3440
     25 O2         -4.7647   10.2355    3.0051 O.3       1 <0>        -0.6273
     26 Br1        -3.1147   11.7662    5.0613 Br        1 <0>        -0.0553
     27 N3          0.7305    9.2595    2.3789 N.pl3     1 <0>         0.0637
     28 O3          1.1214    8.4376    1.5695 O.2       1 <0>        -0.2006
     29 O4          1.5329    9.8764    3.0566 O.3       1 <0>        -0.2136
     30 H1          5.7000    5.5833   -4.6134 H         1 <0>         0.1303
     31 H2          4.7691    3.3221   -4.3488 H         1 <0>         0.1350
     32 H3          2.5214    3.0344   -3.3598 H         1 <0>         0.1309
     33 H4          4.4593    7.5429   -3.9262 H         1 <0>         0.1308
     34 H5         -1.6909    6.6358   -1.2295 H         1 <0>         0.1359
     35 H6         -2.8614   10.6841   -0.4331 H         1 <0>         0.1301
     36 H7         -0.7253   11.4874   -1.3371 H         1 <0>         0.1337
     37 H8          1.4004   11.0553   -2.3023 H         1 <0>         0.4253
     38 H9         -4.9696    8.2453    1.3066 H         1 <0>         0.1743
     39 H10        -1.2653    8.2293    0.9202 H         1 <0>         0.1398
     40 H11        -0.4551   10.8382    4.1928 H         1 <0>         0.1368
@<TRIPOS>BOND
     1    1    6 ar
     2    1    2 ar
     3    1   30 1
     4    2    3 ar
     5    2   31 1
     6    3    4 ar
     7    3   32 1
     8    4    9 1
     9    4    5 ar
    10    5    6 ar
    11    5    7 1
    12    6   33 1
    13    7    8 2
    14    8    9 1
    15    8   10 1
    16   10   15 ar
    17   10   11 ar
    18   11   12 ar
    19   11   34 1
    20   12   13 ar
    21   12   17 1
    22   13   14 ar
    23   13   35 1
    24   14   15 ar
    25   14   36 1
    26   15   16 1
    27   16   37 1
    28   17   18 2
    29   18   19 1
    30   18   38 1
    31   19   24 ar
    32   19   20 ar
    33   20   21 ar
    34   20   39 1
    35   21   22 ar
    36   21   27 1
    37   22   23 ar
    38   22   40 1
    39   23   24 ar
    40   23   26 1
    41   24   25 1
    42   27   28 2
    43   27   29 1
@<TRIPOS>MOLECULE
ZINC34923469
   54    57     0     0     0
SMALL
USER_CHARGES

@<TRIPOS>ATOM
      1 C1         -0.0746    1.4570   -1.2975 C.3       1 <0>        -0.0922
      2 C2         -0.1075   -0.0454   -1.1848 C.2       1 <0>         0.2994
      3 C3         -1.1675   -0.6628   -0.5488 C.2       1 <0>        -0.3865
      4 C4         -1.1548   -2.1726   -0.4614 C.3       1 <0>         0.2630
      5 H1         -1.1983   -2.4481    0.5923 H         1 <0>         0.0748
      6 N1          0.0050   -2.8760   -1.0711 N.pl3     1 <0>        -0.5138
      7 C5          0.2239   -4.2388   -1.1096 C.2       1 <0>         0.2342
      8 C6          1.3493   -4.6760   -1.7169 C.2       1 <0>        -0.2926
      9 S1          2.1043   -3.1485   -2.2377 S.3       1 <0>         0.1544
     10 C7          0.9503   -2.0789   -1.6537 C.2       1 <0>         0.3211
     11 N2          0.8760   -0.7647   -1.7004 N.2       1 <0>        -0.5937
     12 C8         -0.7327   -5.1804   -0.5110 C.2       1 <0>        -0.4536
     13 C9         -0.4016   -6.4785   -0.3701 C.2       1 <0>         0.4881
     14 O1          0.8732   -6.8811   -0.5944 O.3       1 <0>        -0.6838
     15 N3         -1.3638   -7.4020    0.0039 N.pl3     1 <0>        -0.6824
     16 C10        -1.0564   -8.7664    0.0155 C.ar      1 <0>         0.1656
     17 C11         0.2425   -9.1851    0.2717 C.ar      1 <0>        -0.1126
     18 C12         0.5429  -10.5334    0.2829 C.ar      1 <0>        -0.1128
     19 C13        -0.4477  -11.4669    0.0390 C.ar      1 <0>        -0.1402
     20 C14        -1.7429  -11.0552   -0.2166 C.ar      1 <0>        -0.1371
     21 C15        -2.0524   -9.7075   -0.2239 C.ar      1 <0>         0.0303
     22 F1         -3.3188   -9.3053   -0.4681 F         1 <0>        -0.1484
     23 C16        -2.4078   -2.6861   -1.1228 C.ar      1 <0>        -0.1094
     24 C17        -2.5229   -2.6563   -2.5004 C.ar      1 <0>        -0.0548
     25 C18        -3.6706   -3.1260   -3.1091 C.ar      1 <0>        -0.1522
     26 C19        -4.7081   -3.6283   -2.3370 C.ar      1 <0>         0.1246
     27 C20        -4.5899   -3.6574   -0.9550 C.ar      1 <0>        -0.2086
     28 C21        -3.4380   -3.1913   -0.3514 C.ar      1 <0>        -0.0391
     29 O2         -5.8383   -4.0905   -2.9334 O.3       1 <0>        -0.3209
     30 C22        -6.8652   -4.5931   -2.0761 C.3       1 <0>         0.0293
     31 C23        -2.2182    0.0846   -0.0030 C.2       1 <0>         0.5350
     32 O3         -2.2077    1.3006   -0.0845 O.2       1 <0>        -0.5487
     33 O4         -3.2439   -0.5424    0.6144 O.3       1 <0>        -0.3560
     34 C24        -4.2816    0.2825    1.1481 C.3       1 <0>         0.0415
     35 H2          0.8263    1.7618   -1.8299 H         1 <0>         0.0646
     36 H3         -0.9532    1.7997   -1.8441 H         1 <0>         0.0866
     37 H4         -0.0732    1.8962   -0.2999 H         1 <0>         0.0865
     38 H5          1.7001   -5.6886   -1.8513 H         1 <0>         0.2278
     39 H6         -1.7012   -4.8316   -0.1842 H         1 <0>         0.0969
     40 H7         -2.2507   -7.1024    0.2579 H         1 <0>         0.3991
     41 H8          1.0174   -8.4572    0.4617 H         1 <0>         0.1707
     42 H9          1.5532  -10.8590    0.4822 H         1 <0>         0.1223
     43 H10        -0.2092  -12.5202    0.0479 H         1 <0>         0.1209
     44 H11        -2.5141  -11.7870   -0.4071 H         1 <0>         0.1259
     45 H12        -1.7150   -2.2652   -3.1010 H         1 <0>         0.1123
     46 H13        -3.7603   -3.1019   -4.1851 H         1 <0>         0.1242
     47 H14        -5.3962   -4.0479   -0.3518 H         1 <0>         0.1236
     48 H15        -3.3438   -3.2179    0.7241 H         1 <0>         0.1224
     49 H16        -7.7093   -4.9291   -2.6784 H         1 <0>         0.0953
     50 H17        -6.4768   -5.4303   -1.4960 H         1 <0>         0.0549
     51 H18        -7.1928   -3.8035   -1.3999 H         1 <0>         0.0524
     52 H19        -4.7343    0.8627    0.3441 H         1 <0>         0.0513
     53 H20        -5.0406   -0.3451    1.6151 H         1 <0>         0.0889
     54 H21        -3.8614    0.9590    1.8923 H         1 <0>         0.0516
@<TRIPOS>BOND
     1    1    2 1
     2    1   35 1
     3    1   36 1
     4    1   37 1
     5    2   11 1
     6    2    3 2
     7    3    4 1
     8    3   31 1
     9    4    5 1
    10    4    6 1
    11    4   23 1
    12    6   10 1
    13    6    7 1
    14    7    8 2
    15    7   12 1
    16    8    9 1
    17    8   38 1
    18    9   10 1
    19   10   11 2
    20   12   13 2
    21   12   39 1
    22   13   14 1
    23   13   15 1
    24   15   16 1
    25   15   40 1
    26   16   21 ar
    27   16   17 ar
    28   17   18 ar
    29   17   41 1
    30   18   19 ar
    31   18   42 1
    32   19   20 ar
    33   19   43 1
    34   20   21 ar
    35   20   44 1
    36   21   22 1
    37   23   28 ar
    38   23   24 ar
    39   24   25 ar
    40   24   45 1
    41   25   26 ar
    42   25   46 1
    43   26   27 ar
    44   26   29 1
    45   27   28 ar
    46   27   47 1
    47   28   48 1
    48   29   30 1
    49   30   49 1
    50   30   50 1
    51   30   51 1
    52   31   32 2
    53   31   33 1
    54   33   34 1
    55   34   52 1
    56   34   53 1
    57   34   54 1
@<TRIPOS>MOLECULE
ZINC39899126
   59    63     0     0     0
SMALL
USER_CHARGES

@<TRIPOS>ATOM
      1 C1          0.9606    1.0268    0.0337 C.3       1 <0>        -0.1528
      2 C2          0.7991   -0.4457   -0.3489 C.3       1 <0>         0.0549
      3 O1         -0.5399   -0.8644   -0.0771 O.3       1 <0>        -0.3092
      4 C3         -0.8524   -2.1558   -0.3623 C.ar      1 <0>         0.1410
      5 C4          0.1115   -3.0044   -0.8876 C.ar      1 <0>        -0.2005
      6 C5         -0.2085   -4.3167   -1.1762 C.ar      1 <0>        -0.0744
      7 C6         -1.4884   -4.7850   -0.9420 C.ar      1 <0>        -0.1308
      8 C7         -2.4508   -3.9414   -0.4192 C.ar      1 <0>        -0.0595
      9 C8         -2.1341   -2.6295   -0.1235 C.ar      1 <0>        -0.1392
     10 C9         -3.8448   -4.4550   -0.1658 C.3       1 <0>         0.2476
     11 H1         -4.4137   -3.7258    0.4110 H         1 <0>         0.1116
     12 C10        -4.5377   -4.7374   -1.4706 C.2       1 <0>        -0.1687
     13 C11        -5.0111   -4.2351   -2.6875 C.2       1 <0>         0.1148
     14 N1         -5.5553   -5.2405   -3.3443 N.2       1 <0>        -0.2241
     15 N2         -5.4725   -6.3274   -2.6629 N.pl3     1 <0>        -0.3320
     16 H2         -5.8065   -7.1916   -2.9501 H         1 <0>         0.4540
     17 C12        -4.8443   -6.0846   -1.4746 C.2       1 <0>        -0.0590
     18 C13        -4.3715   -6.6743   -0.2171 C.2       1 <0>         0.6006
     19 O2         -4.4896   -7.8458    0.0880 O.2       1 <0>        -0.5152
     20 N3         -3.7891   -5.7350    0.5522 N.am      1 <0>        -0.5879
     21 C14        -3.2003   -5.9516    1.8761 C.3       1 <0>         0.1853
     22 C15        -4.2525   -5.7414    2.9343 C.ar      1 <0>        -0.1564
     23 C16        -4.4461   -4.4836    3.4748 C.ar      1 <0>        -0.0607
     24 C17        -5.4096   -4.2884    4.4453 C.ar      1 <0>        -0.1545
     25 C18        -6.1836   -5.3557    4.8772 C.ar      1 <0>         0.1363
     26 C19        -5.9877   -6.6167    4.3330 C.ar      1 <0>        -0.2108
     27 C20        -5.0264   -6.8056    3.3590 C.ar      1 <0>        -0.0524
     28 O3         -7.1318   -5.1663    5.8322 O.3       1 <0>        -0.3169
     29 C21        -7.8911   -6.3102    6.2283 C.3       1 <0>         0.0261
     30 C22        -4.9185   -2.8289   -3.1531 C.ar      1 <0>        -0.0279
     31 C23        -4.4254   -1.8420   -2.3033 C.ar      1 <0>        -0.0755
     32 C24        -4.3412   -0.5347   -2.7413 C.ar      1 <0>        -0.0428
     33 C25        -4.7456   -0.2021   -4.0232 C.ar      1 <0>        -0.0865
     34 C26        -5.2366   -1.1746   -4.8734 C.ar      1 <0>        -0.1337
     35 C27        -5.3203   -2.4907   -4.4482 C.ar      1 <0>         0.1380
     36 O4         -5.7973   -3.4485   -5.2857 O.3       1 <0>        -0.4790
     37 Cl1        -3.7270    0.6952   -1.6812 Cl        1 <0>        -0.0556
     38 H3          1.9820    1.3462   -0.1736 H         1 <0>         0.0786
     39 H4          0.2656    1.6318   -0.5485 H         1 <0>         0.0669
     40 H5          0.7494    1.1516    1.0957 H         1 <0>         0.0667
     41 H6          1.0103   -0.5705   -1.4109 H         1 <0>         0.0622
     42 H7          1.4942   -1.0507    0.2333 H         1 <0>         0.0619
     43 H8          1.1112   -2.6390   -1.0709 H         1 <0>         0.1290
     44 H9          0.5414   -4.9775   -1.5854 H         1 <0>         0.1266
     45 H10        -1.7367   -5.8114   -1.1684 H         1 <0>         0.1178
     46 H11        -2.8851   -1.9720    0.2892 H         1 <0>         0.1335
     47 H12        -2.8178   -6.9702    1.9413 H         1 <0>         0.0990
     48 H13        -2.3838   -5.2462    2.0304 H         1 <0>         0.0986
     49 H14        -3.8433   -3.6531    3.1383 H         1 <0>         0.1307
     50 H15        -5.5600   -3.3059    4.8677 H         1 <0>         0.1328
     51 H16        -6.5890   -7.4491    4.6676 H         1 <0>         0.1290
     52 H17        -4.8765   -7.7861    2.9318 H         1 <0>         0.1292
     53 H18        -8.6107   -6.0212    6.9943 H         1 <0>         0.1019
     54 H19        -8.4214   -6.7113    5.3645 H         1 <0>         0.0562
     55 H20        -7.2205   -7.0708    6.6282 H         1 <0>         0.0570
     56 H21        -4.1096   -2.0984   -1.3029 H         1 <0>         0.1407
     57 H22        -4.6774    0.8218   -4.3599 H         1 <0>         0.1406
     58 H23        -5.5509   -0.9094   -5.8720 H         1 <0>         0.1431
     59 H24        -6.7547   -3.5746   -5.2344 H         1 <0>         0.3938
@<TRIPOS>BOND
     1    1    2 1
     2    1   38 1
     3    1   39 1
     4    1   40 1
     5    2    3 1
     6    2   41 1
     7    2   42 1
     8    3    4 1
     9    4    9 ar
    10    4    5 ar
    11    5    6 ar
    12    5   43 1
    13    6    7 ar
    14    6   44 1
    15    7    8 ar
    16    7   45 1
    17    8    9 ar
    18    8   10 1
    19    9   46 1
    20   10   11 1
    21   10   20 1
    22   10   12 1
    23   12   17 2
    24   12   13 1
    25   13   14 2
    26   13   30 1
    27   14   15 1
    28   15   16 1
    29   15   17 1
    30   17   18 1
    31   18   19 2
    32   18   20 am
    33   20   21 1
    34   21   22 1
    35   21   47 1
    36   21   48 1
    37   22   27 ar
    38   22   23 ar
    39   23   24 ar
    40   23   49 1
    41   24   25 ar
    42   24   50 1
    43   25   26 ar
    44   25   28 1
    45   26   27 ar
    46   26   51 1
    47   27   52 1
    48   28   29 1
    49   29   53 1
    50   29   54 1
    51   29   55 1
    52   30   35 ar
    53   30   31 ar
    54   31   32 ar
    55   31   56 1
    56   32   33 ar
    57   32   37 1
    58   33   34 ar
    59   33   57 1
    60   34   35 ar
    61   34   58 1
    62   35   36 1
    63   36   59 1
@<TRIPOS>MOLECULE
ZINC16393399
   53    55     0     0     0
SMALL
USER_CHARGES

@<TRIPOS>ATOM
      1 C1          1.6065   -2.5205    1.9802 C.3       1 <0>        -0.1376
      2 C2          1.9184   -3.9574    1.5572 C.3       1 <0>        -0.0300
      3 C3          3.0100   -4.5303    2.4633 C.3       1 <0>        -0.1377
      4 C4          0.6544   -4.8108    1.6792 C.3       1 <0>        -0.1438
      5 C5          2.3955   -3.9678    0.1277 C.ar      1 <0>        -0.0667
      6 C6          1.6927   -4.6811   -0.8275 C.ar      1 <0>        -0.1355
      7 C7          2.1236   -4.6957   -2.1375 C.ar      1 <0>        -0.0716
      8 C8          3.2725   -3.9874   -2.4994 C.ar      1 <0>        -0.0972
      9 C9          3.9767   -3.2690   -1.5295 C.ar      1 <0>        -0.0862
     10 C10         3.5310   -3.2595   -0.2244 C.ar      1 <0>        -0.1292
     11 C11         3.7401   -3.9984   -3.8986 C.2       1 <0>         0.3516
     12 O1          3.0561   -4.6953   -4.8349 O.3       1 <0>        -0.5582
     13 C12         4.8591   -3.3077   -4.2473 C.2       1 <0>        -0.3429
     14 C13         5.3063   -3.3183   -5.5855 C.2       1 <0>         0.3286
     15 N1          4.7650   -3.9358   -6.6332 N.2       1 <0>        -0.6261
     16 C14         5.2853   -3.8635   -7.8347 C.2       1 <0>         0.5182
     17 O2          4.7804   -4.4337   -8.7894 O.2       1 <0>        -0.5135
     18 C15         6.5180   -3.0530   -7.9726 C.2       1 <0>        -0.1547
     19 C16         7.2718   -2.7972   -9.0733 C.2       1 <0>        -0.0474
     20 C17         8.5631   -2.1132   -8.9357 C.ar      1 <0>        -0.0130
     21 C18         9.1077   -1.8894   -7.6648 C.ar      1 <0>        -0.0808
     22 C19        10.3196   -1.2472   -7.5391 C.ar      1 <0>        -0.0348
     23 C20        11.0040   -0.8199   -8.6694 C.ar      1 <0>         0.1382
     24 C21        10.4685   -1.0383   -9.9384 C.ar      1 <0>         0.1044
     25 C22         9.2574   -1.6872  -10.0751 C.ar      1 <0>        -0.1366
     26 O3         11.1423   -0.6171  -11.0421 O.3       1 <0>        -0.2990
     27 C23        10.5353   -0.8739  -12.3100 C.3       1 <0>         0.0205
     28 O4         12.1986   -0.1867   -8.5385 O.3       1 <0>        -0.4601
     29 N2         10.8940   -1.0115   -6.1954 N.pl3     1 <0>         0.0368
     30 O5         10.2995   -1.3824   -5.2102 O.2       1 <0>        -0.1498
     31 O6         11.9577   -0.4479   -6.0830 O.3       1 <0>        -0.1419
     32 S1          6.7313   -2.4999   -6.2853 S.3       1 <0>        -0.1616
     33 H1          2.5070   -1.9126    1.8933 H         1 <0>         0.0576
     34 H2          0.8288   -2.1124    1.3347 H         1 <0>         0.0562
     35 H3          1.2614   -2.5130    3.0142 H         1 <0>         0.0550
     36 H4          2.6649   -4.5228    3.4972 H         1 <0>         0.0549
     37 H5          3.2322   -5.5540    2.1619 H         1 <0>         0.0563
     38 H6          3.9105   -3.9223    2.3764 H         1 <0>         0.0577
     39 H7         -0.1233   -4.4026    1.0336 H         1 <0>         0.0588
     40 H8          0.8766   -5.8344    1.3778 H         1 <0>         0.0589
     41 H9          0.3093   -4.8032    2.7131 H         1 <0>         0.0547
     42 H10         0.8049   -5.2281   -0.5464 H         1 <0>         0.1237
     43 H11         1.5745   -5.2533   -2.8818 H         1 <0>         0.1308
     44 H12         4.8656   -2.7194   -1.8020 H         1 <0>         0.1301
     45 H13         4.0718   -2.7012    0.5255 H         1 <0>         0.1194
     46 H14         5.4051   -2.7514   -3.4998 H         1 <0>         0.1252
     47 H15         6.9209   -3.0972  -10.0497 H         1 <0>         0.1573
     48 H16         8.5775   -2.2200   -6.7839 H         1 <0>         0.1785
     49 H17         8.8442   -1.8611  -11.0576 H         1 <0>         0.1551
     50 H18        11.1748   -0.4879  -13.1038 H         1 <0>         0.1071
     51 H19        10.4043   -1.9483  -12.4392 H         1 <0>         0.0610
     52 H20         9.5639   -0.3815  -12.3542 H         1 <0>         0.0615
     53 H21        12.9613   -0.7812   -8.5423 H         1 <0>         0.3980
@<TRIPOS>BOND
     1    1    2 1
     2    1   33 1
     3    1   34 1
     4    1   35 1
     5    2    3 1
     6    2    4 1
     7    2    5 1
     8    3   36 1
     9    3   37 1
    10    3   38 1
    11    4   39 1
    12    4   40 1
    13    4   41 1
    14    5   10 ar
    15    5    6 ar
    16    6    7 ar
    17    6   42 1
    18    7    8 ar
    19    7   43 1
    20    8    9 ar
    21    8   11 1
    22    9   10 ar
    23    9   44 1
    24   10   45 1
    25   11   12 1
    26   11   13 2
    27   13   14 1
    28   13   46 1
    29   14   32 1
    30   14   15 2
    31   15   16 1
    32   16   17 2
    33   16   18 1
    34   18   19 2
    35   18   32 1
    36   19   20 1
    37   19   47 1
    38   20   25 ar
    39   20   21 ar
    40   21   22 ar
    41   21   48 1
    42   22   23 ar
    43   22   29 1
    44   23   24 ar
    45   23   28 1
    46   24   25 ar
    47   24   26 1
    48   25   49 1
    49   26   27 1
    50   27   50 1
    51   27   51 1
    52   27   52 1
    53   28   53 1
    54   29   30 2
    55   29   31 1
@<TRIPOS>MOLECULE
ZINC65001946
   48    51     0     0     0
SMALL
USER_CHARGES

@<TRIPOS>ATOM
      1 C1         -0.0187    1.5258    0.0104 C.3       1 <0>        -0.1476
      2 C2          0.0021   -0.0041    0.0020 C.3       1 <0>        -0.0625
      3 C3          0.7421   -0.5109    1.2415 C.3       1 <0>        -0.1445
      4 C4         -1.4333   -0.5336    0.0129 C.3       1 <0>        -0.1437
      5 C5          0.7182   -0.4975   -1.2568 C.3       1 <0>        -0.0701
      6 H1          0.7342   -1.5873   -1.2649 H         1 <0>         0.0752
      7 C6         -0.0155    0.0149   -2.4996 C.3       1 <0>        -0.1177
      8 C7          0.5384   -0.6706   -3.7487 C.3       1 <0>        -0.0569
      9 C8          2.0558   -0.5062   -3.7710 C.2       1 <0>        -0.0375
     10 C9          2.7296   -0.1874   -2.6407 C.2       1 <0>        -0.1988
     11 S1          4.4354   -0.1015   -3.1247 S.3       1 <0>         0.1310
     12 C10         4.2429   -0.4911   -4.8354 C.2       1 <0>         0.1259
     13 C11         2.8480   -0.6770   -4.9756 C.2       1 <0>        -0.2958
     14 C12         2.3589   -1.0124   -6.2826 C.2       1 <0>         0.5683
     15 O1          1.1738   -1.1920   -6.5039 O.2       1 <0>        -0.5352
     16 N1          3.2956   -1.1164   -7.2547 N.am      1 <0>        -0.6444
     17 H2          3.0079   -1.3410   -8.1534 H         1 <0>         0.4093
     18 C13         4.6266   -0.9188   -7.0264 C.2       1 <0>         0.4742
     19 N2          5.1101   -0.6086   -5.8316 N.2       1 <0>        -0.4189
     20 C14         5.5660   -1.0563   -8.1557 C.ar      1 <0>        -0.2106
     21 C15         5.0908   -1.3770   -9.4295 C.ar      1 <0>         0.0322
     22 C16         5.9743   -1.5041  -10.4809 C.ar      1 <0>        -0.2204
     23 C17         7.3322   -1.3151  -10.2790 C.ar      1 <0>         0.0577
     24 C18         7.8142   -0.9978   -9.0241 C.ar      1 <0>        -0.1802
     25 C19         6.9393   -0.8605   -7.9576 C.ar      1 <0>         0.3407
     26 O2          7.4116   -0.5431   -6.7252 O.3       1 <0>        -0.5485
     27 N3          9.2664   -0.7979   -8.8190 N.pl3     1 <0>         0.0654
     28 O3         10.0297   -0.9125   -9.7495 O.2       1 <0>        -0.2422
     29 O4          9.6893   -0.5202   -7.7210 O.3       1 <0>        -0.1399
     30 Br1         5.3301   -1.9388  -12.2049 Br        1 <0>        -0.0603
     31 C20         2.1566    0.0389   -1.2748 C.3       1 <0>        -0.0279
     32 H3          1.0039    1.9031    0.0027 H         1 <0>         0.0593
     33 H4         -0.5459    1.8868   -0.8726 H         1 <0>         0.0583
     34 H5         -0.5289    1.8773    0.9072 H         1 <0>         0.0519
     35 H6          0.2319   -0.1594    2.1383 H         1 <0>         0.0529
     36 H7          0.7568   -1.6008    1.2356 H         1 <0>         0.0545
     37 H8          1.7647   -0.1336    1.2338 H         1 <0>         0.0581
     38 H9         -1.9605   -0.1726   -0.8702 H         1 <0>         0.0593
     39 H10        -1.4185   -1.6235    0.0069 H         1 <0>         0.0541
     40 H11        -1.9435   -0.1821    0.9097 H         1 <0>         0.0527
     41 H12        -1.0794   -0.2038   -2.4080 H         1 <0>         0.0709
     42 H13         0.1256    1.0924   -2.5850 H         1 <0>         0.0659
     43 H14         0.2864   -1.7308   -3.7253 H         1 <0>         0.0738
     44 H15         0.1083   -0.2109   -4.6385 H         1 <0>         0.0836
     45 H16         4.0332   -1.5254   -9.5907 H         1 <0>         0.1244
     46 H17         8.0175   -1.4169  -11.1075 H         1 <0>         0.1420
     47 H18         2.1523    1.1063   -1.0538 H         1 <0>         0.0836
     48 H19         2.7539   -0.4895   -0.5318 H         1 <0>         0.0787
@<TRIPOS>BOND
     1    1    2 1
     2    1   32 1
     3    1   33 1
     4    1   34 1
     5    2    3 1
     6    2    4 1
     7    2    5 1
     8    3   35 1
     9    3   36 1
    10    3   37 1
    11    4   38 1
    12    4   39 1
    13    4   40 1
    14    5    6 1
    15    5   31 1
    16    5    7 1
    17    7    8 1
    18    7   41 1
    19    7   42 1
    20    8    9 1
    21    8   43 1
    22    8   44 1
    23    9   13 1
    24    9   10 2
    25   10   11 1
    26   10   31 1
    27   11   12 1
    28   12   19 1
    29   12   13 2
    30   13   14 1
    31   14   15 2
    32   14   16 am
    33   16   17 1
    34   16   18 1
    35   18   19 2
    36   18   20 1
    37   20   25 ar
    38   20   21 ar
    39   21   22 ar
    40   21   45 1
    41   22   23 ar
    42   22   30 1
    43   23   24 ar
    44   23   46 1
    45   24   25 ar
    46   24   27 1
    47   25   26 1
    48   27   28 2
    49   27   29 1
    50   31   47 1
    51   31   48 1
@<TRIPOS>MOLECULE
ZINC13346553
   55    59     0     0     0
SMALL
USER_CHARGES
2-[[2-[oxo-[[(2S)-tetrahydrofuran-2-yl]methyl]BLAHyl]sulfanylacetyl]amino]benzoic acid
@<TRIPOS>ATOM
      1 C1         -4.7671   -0.2556   -0.2917 C.ar      1 <0>        -0.1572
      2 C2         -3.5914   -0.7900   -0.7942 C.ar      1 <0>        -0.1028
      3 C3         -2.4073   -0.0873   -0.6983 C.ar      1 <0>        -0.1507
      4 C4         -2.3854    1.1588   -0.0861 C.ar      1 <0>         0.1741
      5 C5         -3.5741    1.7032    0.4235 C.ar      1 <0>        -0.1474
      6 C6         -4.7660    0.9819    0.3140 C.ar      1 <0>        -0.0576
      7 C7         -3.5657    3.0278    1.0697 C.2       1 <0>         0.4978
      8 O1         -2.5476    3.6910    1.0827 O.co2     1 <0>        -0.6355
      9 N1         -1.1909    1.8671    0.0165 N.am      1 <0>        -0.6332
     10 C8         -0.0146    1.2091    0.0114 C.2       1 <0>         0.5254
     11 O2          0.0018   -0.0035    0.0188 O.2       1 <0>        -0.5271
     12 C9          1.2800    1.9802   -0.0098 C.3       1 <0>        -0.1499
     13 S1          2.6715    0.8227   -0.0201 S.3       1 <0>         0.1000
     14 C10         4.0162    1.9610   -0.0442 C.2       1 <0>         0.3589
     15 N2          3.7709    3.2559   -0.0492 N.2       1 <0>        -0.4987
     16 C11         4.7667    4.1350   -0.0668 C.2       1 <0>         0.1200
     17 C12         6.1114    3.7379   -0.0812 C.2       1 <0>        -0.2454
     18 C13         7.1052    4.8242   -0.0999 C.2       1 <0>        -0.0663
     19 C14         6.6316    6.0804   -0.0995 C.2       1 <0>        -0.2076
     20 S2          4.8622    5.9058   -0.0783 S.3       1 <0>         0.1804
     21 C15         7.7352    7.1040   -0.1157 C.3       1 <0>        -0.0295
     22 C16         8.9965    6.3206    0.3095 C.3       1 <0>        -0.1173
     23 C17         8.6351    4.8864   -0.1243 C.3       1 <0>        -0.0607
     24 C18         6.3497    2.3277   -0.0755 C.2       1 <0>         0.5644
     25 O3          7.4882    1.8921   -0.0876 O.2       1 <0>        -0.5064
     26 N3          5.2968    1.4890   -0.0518 N.am      1 <0>        -0.5061
     27 C19         5.5300    0.0427   -0.0397 C.3       1 <0>         0.0745
     28 C20         5.5973   -0.4750   -1.4779 C.3       1 <0>         0.0647
     29 H1          4.6988   -0.1796   -2.0196 H         1 <0>         0.0908
     30 C21         5.7275   -2.0133   -1.4752 C.3       1 <0>        -0.1469
     31 C22         6.7288   -2.2614   -2.6361 C.3       1 <0>        -0.1549
     32 C23         7.6370   -1.0120   -2.5133 C.3       1 <0>         0.0509
     33 O4          6.7557    0.0563   -2.1319 O.3       1 <0>        -0.3619
     34 H2         -5.6890   -0.8118   -0.3755 H         1 <0>         0.1172
     35 H3         -3.6024   -1.7606   -1.2676 H         1 <0>         0.1178
     36 H4         -1.4961   -0.5089   -1.0961 H         1 <0>         0.1406
     37 H5         -5.6852    1.3941    0.7033 H         1 <0>         0.1337
     38 H6         -1.2053    2.8341    0.0917 H         1 <0>         0.4313
     39 H7          1.3180    2.6020   -0.9042 H         1 <0>         0.1353
     40 H8          1.3405    2.6131    0.8756 H         1 <0>         0.1370
     41 H9          7.5246    7.9016    0.5968 H         1 <0>         0.0801
     42 H10         7.8617    7.5138   -1.1177 H         1 <0>         0.0855
     43 H11         9.1455    6.3763    1.3879 H         1 <0>         0.0762
     44 H12         9.8774    6.6791   -0.2231 H         1 <0>         0.0834
     45 H13         9.0530    4.1639    0.5767 H         1 <0>         0.0778
     46 H14         9.0043    4.6928   -1.1314 H         1 <0>         0.0805
     47 H15         6.4713   -0.1694    0.4672 H         1 <0>         0.1124
     48 H16         4.7141   -0.4524    0.4869 H         1 <0>         0.1094
     49 H17         6.1361   -2.3664   -0.5284 H         1 <0>         0.0827
     50 H18         4.7669   -2.4843   -1.6841 H         1 <0>         0.0922
     51 H19         6.2173   -2.2821   -3.5984 H         1 <0>         0.0799
     52 H20         7.2973   -3.1776   -2.4764 H         1 <0>         0.0851
     53 H21         8.1074   -0.7906   -3.4712 H         1 <0>         0.0837
     54 H22         8.3950   -1.1693   -1.7460 H         1 <0>         0.0609
     55 O5         -4.6871    3.5034    1.6461 O.co2     1 <0>        -0.7414
@<TRIPOS>BOND
     1    1    6 ar
     2    1    2 ar
     3    1   34 1
     4    2    3 ar
     5    2   35 1
     6    3    4 ar
     7    3   36 1
     8    4    5 ar
     9    4    9 1
    10    5    6 ar
    11    5    7 1
    12    6   37 1
    13    7    8 2
    14    7   55 1
    15    9   10 am
    16    9   38 1
    17   10   11 2
    18   10   12 1
    19   12   13 1
    20   12   39 1
    21   12   40 1
    22   13   14 1
    23   14   26 1
    24   14   15 2
    25   15   16 1
    26   16   20 1
    27   16   17 2
    28   17   18 1
    29   17   24 1
    30   18   23 1
    31   18   19 2
    32   19   20 1
    33   19   21 1
    34   21   22 1
    35   21   41 1
    36   21   42 1
    37   22   23 1
    38   22   43 1
    39   22   44 1
    40   23   45 1
    41   23   46 1
    42   24   25 2
    43   24   26 am
    44   26   27 1
    45   27   28 1
    46   27   47 1
    47   27   48 1
    48   28   29 1
    49   28   33 1
    50   28   30 1
    51   30   31 1
    52   30   49 1
    53   30   50 1
    54   31   32 1
    55   31   51 1
    56   31   52 1
    57   32   33 1
    58   32   53 1
    59   32   54 1
@<TRIPOS>MOLECULE
ZINC28356447
   54    57     0     0     0
SMALL
USER_CHARGES
ethyl 4-[5-[(2S)-5-cyano-1-(4-methoxyphenyl)-4-oxo-6-sulfanyl-2,3-dihydropyrimidin-2-yl]-2-furyl]benzoate
@<TRIPOS>ATOM
      1 C1         -2.7790    8.2766    0.3710 C.3       1 <0>        -0.1546
      2 C2         -1.3493    7.7330    0.3345 C.3       1 <0>         0.0604
      3 O1         -1.3841    6.2820    0.2920 O.3       1 <0>        -0.3545
      4 C3         -0.1985    5.6423    0.2561 C.2       1 <0>         0.5117
      5 O2          0.8361    6.2796    0.2603 O.2       1 <0>        -0.5062
      6 C4         -0.1567    4.1692    0.2119 C.ar      1 <0>        -0.1337
      7 C5          1.0739    3.5051    0.1747 C.ar      1 <0>        -0.0449
      8 C6          1.1124    2.1408    0.1341 C.ar      1 <0>        -0.1110
      9 C7         -0.0783    1.4074    0.1298 C.ar      1 <0>         0.0351
     10 C8         -1.3088    2.0712    0.1616 C.ar      1 <0>        -0.1169
     11 C9         -1.3476    3.4354    0.2075 C.ar      1 <0>        -0.0561
     12 C10        -0.0365   -0.0666    0.0855 C.2       1 <0>         0.0119
     13 C11        -1.1154   -0.8968    0.0767 C.2       1 <0>        -0.1750
     14 C12        -0.6147   -2.2117    0.0299 C.2       1 <0>        -0.1845
     15 C13         0.7307   -2.1221    0.0126 C.2       1 <0>        -0.0209
     16 O3          1.0760   -0.8253    0.0409 O.3       1 <0>        -0.1420
     17 C14         1.6879   -3.2850   -0.0372 C.3       1 <0>         0.4662
     18 H1          1.9520   -3.6252    0.9750 H         1 <0>         0.1265
     19 N1          1.0635   -4.3993   -0.7528 N.am      1 <0>        -0.7457
     20 C15         1.1946   -4.5160   -2.0892 C.2       1 <0>         0.6011
     21 O4          0.6363   -5.4212   -2.6826 O.2       1 <0>        -0.5621
     22 C16         2.0121   -3.5478   -2.8237 C.2       1 <0>        -0.3228
     23 C17         2.8871   -2.7264   -2.0929 C.2       1 <0>         0.4465
     24 N2          2.9152   -2.8773   -0.7291 N.pl3     1 <0>        -0.5692
     25 C18         4.0946   -2.6457   -0.0108 C.ar      1 <0>         0.1388
     26 C19         5.1866   -3.4871   -0.1785 C.ar      1 <0>        -0.0639
     27 C20         6.3512   -3.2549    0.5263 C.ar      1 <0>        -0.1953
     28 C21         6.4267   -2.1881    1.4099 C.ar      1 <0>         0.1214
     29 C22         5.3345   -1.3503    1.5818 C.ar      1 <0>        -0.1418
     30 C23         4.1710   -1.5780    0.8739 C.ar      1 <0>        -0.0688
     31 O5          7.5720   -1.9632    2.1073 O.3       1 <0>        -0.3195
     32 C24         8.6571   -2.8652    1.8811 C.3       1 <0>         0.0247
     33 S1          3.9124   -1.5422   -2.8998 S.3       1 <0>        -0.7745
     34 C25         1.9216   -3.4407   -4.2488 C.1       1 <0>         0.3365
     35 N3          1.8498   -3.3557   -5.3793 N.1       1 <0>        -0.4959
     36 H2         -2.7526    9.3758    0.4032 H         1 <0>         0.0805
     37 H3         -3.2933    7.8958    1.2657 H         1 <0>         0.0675
     38 H4         -3.3189    7.9490   -0.5296 H         1 <0>         0.0680
     39 H5         -0.8350    8.1138   -0.5602 H         1 <0>         0.0718
     40 H6         -0.8093    8.0606    1.2351 H         1 <0>         0.0714
     41 H7          1.9935    4.0714    0.1784 H         1 <0>         0.1419
     42 H8          2.0625    1.6280    0.1051 H         1 <0>         0.1424
     43 H9         -2.2283    1.5048    0.1541 H         1 <0>         0.1372
     44 H10        -2.2978    3.9480    0.2359 H         1 <0>         0.1422
     45 H11        -2.1545   -0.6034    0.1012 H         1 <0>         0.1520
     46 H12        -1.1979   -3.1205    0.0110 H         1 <0>         0.1531
     47 H13         0.4810   -5.1508   -0.1996 H         1 <0>         0.4277
     48 H14         5.1264   -4.3205   -0.8627 H         1 <0>         0.1249
     49 H15         7.2020   -3.9067    0.3930 H         1 <0>         0.1279
     50 H16         5.3940   -0.5200    2.2699 H         1 <0>         0.1305
     51 H17         3.3207   -0.9257    1.0079 H         1 <0>         0.1315
     52 H18         9.5147   -2.5705    2.5037 H         1 <0>         0.0975
     53 H19         8.9459   -2.8327    0.8202 H         1 <0>         0.0565
     54 H20         8.3459   -3.8867    2.1453 H         1 <0>         0.0545
@<TRIPOS>BOND
     1    1    2 1
     2    1   36 1
     3    1   37 1
     4    1   38 1
     5    2    3 1
     6    2   39 1
     7    2   40 1
     8    3    4 1
     9    4    5 2
    10    4    6 1
    11    6   11 ar
    12    6    7 ar
    13    7    8 ar
    14    7   41 1
    15    8    9 ar
    16    8   42 1
    17    9   10 ar
    18    9   12 1
    19   10   11 ar
    20   10   43 1
    21   11   44 1
    22   12   16 1
    23   12   13 2
    24   13   14 1
    25   13   45 1
    26   14   15 2
    27   14   46 1
    28   15   16 1
    29   15   17 1
    30   17   18 1
    31   17   24 1
    32   17   19 1
    33   19   20 am
    34   19   47 1
    35   20   21 2
    36   20   22 1
    37   22   23 2
    38   22   34 1
    39   23   24 1
    40   23   33 1
    41   24   25 1
    42   25   30 ar
    43   25   26 ar
    44   26   27 ar
    45   26   48 1
    46   27   28 ar
    47   27   49 1
    48   28   29 ar
    49   28   31 1
    50   29   30 ar
    51   29   50 1
    52   30   51 1
    53   31   32 1
    54   32   52 1
    55   32   53 1
    56   32   54 1
    57   34   35 3
@<TRIPOS>MOLECULE
ZINC00719140
   55    58     0     0     0
SMALL
USER_CHARGES

@<TRIPOS>ATOM
      1 C1          0.9682    1.9270   -1.1078 C.3       1 <0>        -0.1674
      2 C2          1.0182    0.4038   -1.2432 C.3       1 <0>         0.0967
      3 N1          1.9246    0.0401   -2.3351 N.pl3     1 <0>        -0.4774
      4 C3          1.4241   -0.0760   -3.5737 C.2       1 <0>         0.1478
      5 C4          2.2093   -0.4144   -4.6578 C.2       1 <0>        -0.2803
      6 C5          3.6487   -0.6565   -4.4454 C.2       1 <0>         0.4307
      7 O1          4.3867   -0.9573   -5.3671 O.2       1 <0>        -0.4489
      8 C6          4.1528   -0.5178   -3.0713 C.ar      1 <0>        -0.3432
      9 C7          3.2502   -0.1618   -2.0485 C.ar      1 <0>         0.4670
     10 N2          3.7157   -0.0340   -0.8109 N.ar      1 <0>        -0.6106
     11 C8          4.9994   -0.2329   -0.5525 C.ar      1 <0>         0.6064
     12 N3          5.8747   -0.5641   -1.4951 N.ar      1 <0>        -0.5987
     13 C9          5.4955   -0.7227   -2.7515 C.ar      1 <0>         0.2733
     14 N4          5.4447   -0.0902    0.7458 N.pl3     1 <0>        -0.5870
     15 C10         4.5104    0.2696    1.8217 C.3       1 <0>         0.1196
     16 C11         4.6063   -0.7882    2.9282 C.3       1 <0>         0.0713
     17 N5          6.0232   -0.9937    3.2598 N.pl3     1 <0>        -0.5236
     18 C12         6.9575   -1.3535    2.1839 C.3       1 <0>         0.0696
     19 C13         6.8606   -0.3013    1.0784 C.3       1 <0>         0.1200
     20 C14         6.4582   -0.8544    4.5278 C.2       1 <0>         0.5598
     21 S1          5.3866   -0.3052    5.7448 S.2       1 <0>        -0.5541
     22 N6          7.7367   -1.1473    4.8378 N.pl3     1 <0>        -0.6900
     23 C15         8.1640   -2.4792    4.8576 C.ar      1 <0>         0.2400
     24 C16         7.2477   -3.5070    4.6748 C.ar      1 <0>        -0.1741
     25 C17         7.6728   -4.8206    4.6945 C.ar      1 <0>        -0.0397
     26 C18         9.0093   -5.1135    4.8962 C.ar      1 <0>        -0.1534
     27 C19         9.9240   -4.0928    5.0784 C.ar      1 <0>        -0.0307
     28 C20         9.5061   -2.7765    5.0542 C.ar      1 <0>        -0.2354
     29 C21        10.5046   -1.6644    5.2472 C.3       1 <0>         0.5086
     30 F1         11.7808   -2.2092    5.4250 F         1 <0>        -0.1711
     31 F2         10.5040   -0.8362    4.1196 F         1 <0>        -0.1778
     32 F3         10.1559   -0.9153    6.3761 F         1 <0>        -0.1738
     33 C22         1.6223   -0.5316   -5.9969 C.2       1 <0>         0.5368
     34 O2          0.4264   -0.3287   -6.1609 O.co2     1 <0>        -0.7002
     35 O3          2.3284   -0.8322   -6.9505 O.co2     1 <0>        -0.6615
     36 H1          1.9673    2.3055   -0.8919 H         1 <0>         0.0599
     37 H2          0.6080    2.3630   -2.0396 H         1 <0>         0.0627
     38 H3          0.2938    2.1976   -0.2954 H         1 <0>         0.0730
     39 H4          1.3784   -0.0322   -0.3114 H         1 <0>         0.0973
     40 H5          0.0191    0.0253   -1.4591 H         1 <0>         0.0913
     41 H6          0.3700    0.1009   -3.7286 H         1 <0>         0.1751
     42 H7          6.2105   -0.9926   -3.5147 H         1 <0>         0.1828
     43 H8          4.7763    1.2465    2.2255 H         1 <0>         0.0775
     44 H9          3.4939    0.2975    1.4294 H         1 <0>         0.1220
     45 H10         4.0702   -0.4427    3.8120 H         1 <0>         0.1425
     46 H11         4.1731   -1.7248    2.5773 H         1 <0>         0.0919
     47 H12         7.9741   -1.3814    2.5762 H         1 <0>         0.1034
     48 H13         6.6917   -2.3305    1.7801 H         1 <0>         0.0947
     49 H14         7.3957   -0.6503    0.1953 H         1 <0>         0.1245
     50 H15         7.2976    0.6341    1.4281 H         1 <0>         0.0740
     51 H16         8.3605   -0.4346    5.0471 H         1 <0>         0.4268
     52 H17         6.2037   -3.2789    4.5180 H         1 <0>         0.1310
     53 H18         6.9608   -5.6202    4.5525 H         1 <0>         0.1381
     54 H19         9.3392   -6.1418    4.9119 H         1 <0>         0.1386
     55 H20        10.9670   -4.3249    5.2358 H         1 <0>         0.1443
@<TRIPOS>BOND
     1    1    2 1
     2    1   36 1
     3    1   37 1
     4    1   38 1
     5    2    3 1
     6    2   39 1
     7    2   40 1
     8    3    9 1
     9    3    4 1
    10    4    5 2
    11    4   41 1
    12    5    6 1
    13    5   33 1
    14    6    7 2
    15    6    8 1
    16    8   13 ar
    17    8    9 ar
    18    9   10 ar
    19   10   11 ar
    20   11   12 ar
    21   11   14 1
    22   12   13 ar
    23   13   42 1
    24   14   19 1
    25   14   15 1
    26   15   16 1
    27   15   43 1
    28   15   44 1
    29   16   17 1
    30   16   45 1
    31   16   46 1
    32   17   18 1
    33   17   20 1
    34   18   19 1
    35   18   47 1
    36   18   48 1
    37   19   49 1
    38   19   50 1
    39   20   21 2
    40   20   22 1
    41   22   23 1
    42   22   51 1
    43   23   28 ar
    44   23   24 ar
    45   24   25 ar
    46   24   52 1
    47   25   26 ar
    48   25   53 1
    49   26   27 ar
    50   26   54 1
    51   27   28 ar
    52   27   55 1
    53   28   29 1
    54   29   30 1
    55   29   31 1
    56   29   32 1
    57   33   34 2
    58   33   35 1
@<TRIPOS>MOLECULE
ZINC39857863
   49    52     0     0     0
SMALL
USER_CHARGES

@<TRIPOS>ATOM
      1 C1          1.1392   -7.9699    1.3483 C.ar      1 <0>        -0.0907
      2 C2          1.1653   -8.8180    2.4401 C.ar      1 <0>        -0.1323
      3 C3          0.3503   -8.5752    3.5296 C.ar      1 <0>        -0.0876
      4 C4         -0.4970   -7.4772    3.5326 C.ar      1 <0>         0.0522
      5 C5         -0.5183   -6.6208    2.4354 C.ar      1 <0>         0.1548
      6 C6          0.2992   -6.8724    1.3431 C.ar      1 <0>        -0.1425
      7 N1         -1.3570   -5.4958    2.4310 N.pl3     1 <0>        -0.6143
      8 C7         -2.4436   -5.4435    3.4260 C.3       1 <0>         0.0867
      9 C8         -1.8923   -6.0466    4.7048 C.2       1 <0>         0.4850
     10 O1         -1.9782   -5.4690    5.7626 O.2       1 <0>        -0.4327
     11 O2         -1.3016   -7.2560    4.6087 O.3       1 <0>        -0.2917
     12 C9         -1.1590   -4.4085    1.4693 C.3       1 <0>         0.1201
     13 C10        -1.9604   -4.6873    0.2238 C.2       1 <0>         0.4737
     14 O3         -2.6309   -5.6950    0.1471 O.2       1 <0>        -0.4852
     15 N2         -1.9320   -3.8168   -0.8047 N.am      1 <0>        -0.6724
     16 C11        -2.5974   -4.1211   -1.9974 C.ar      1 <0>         0.1109
     17 C12        -2.0599   -3.7242   -3.2150 C.ar      1 <0>        -0.1049
     18 C13        -2.7191   -4.0260   -4.3903 C.ar      1 <0>        -0.1277
     19 C14        -3.9136   -4.7223   -4.3558 C.ar      1 <0>        -0.0350
     20 C15        -4.4516   -5.1184   -3.1453 C.ar      1 <0>        -0.5976
     21 C16        -3.7937   -4.8253   -1.9665 C.ar      1 <0>        -0.0203
     22 S1         -5.9739   -6.0047   -3.1066 S.o2      1 <0>         2.6038
     23 O4         -6.5398   -5.7840   -1.8220 O.2       1 <0>        -1.0259
     24 O5         -6.6619   -5.6828   -4.3076 O.2       1 <0>        -1.0284
     25 N3         -5.6042   -7.6167   -3.1904 N.2       1 <0>        -1.0832
     26 C17        -6.6259   -8.5690   -3.1791 C.ar      1 <0>         0.2907
     27 C18        -7.9532   -8.1652   -3.1033 C.ar      1 <0>        -0.2621
     28 C19        -8.9614   -9.1087   -3.0927 C.ar      1 <0>        -0.0546
     29 C20        -8.6517  -10.4549   -3.1570 C.ar      1 <0>        -0.2199
     30 C21        -7.3310  -10.8612   -3.2325 C.ar      1 <0>         0.0154
     31 C22        -6.3175   -9.9212   -3.2493 C.ar      1 <0>        -0.1746
     32 Cl1        -6.9470  -12.5523   -3.3125 Cl        1 <0>        -0.1065
     33 H1          1.7794   -8.1630    0.5001 H         1 <0>         0.1303
     34 H2          1.8246   -9.6734    2.4414 H         1 <0>         0.1335
     35 H3          0.3730   -9.2413    4.3794 H         1 <0>         0.1379
     36 H4          0.2793   -6.2112    0.4895 H         1 <0>         0.1259
     37 H5         -2.7412   -4.4093    3.5994 H         1 <0>         0.1227
     38 H6         -3.2971   -6.0248    3.0772 H         1 <0>         0.1109
     39 H7         -1.4892   -3.4682    1.9109 H         1 <0>         0.1148
     40 H8         -0.1019   -4.3381    1.2130 H         1 <0>         0.1138
     41 H9         -1.4502   -2.9794   -0.7182 H         1 <0>         0.4087
     42 H10        -1.1275   -3.1799   -3.2426 H         1 <0>         0.1272
     43 H11        -2.3016   -3.7177   -5.3374 H         1 <0>         0.1316
     44 H12        -4.4274   -4.9568   -5.2763 H         1 <0>         0.1387
     45 H13        -4.2118   -5.1395   -1.0216 H         1 <0>         0.1512
     46 H14        -8.1961   -7.1141   -3.0523 H         1 <0>         0.1016
     47 H15        -9.9931   -8.7949   -3.0338 H         1 <0>         0.1122
     48 H16        -9.4422  -11.1907   -3.1478 H         1 <0>         0.1127
     49 H17        -5.2870  -10.2382   -3.3128 H         1 <0>         0.1228
@<TRIPOS>BOND
     1    1    6 ar
     2    1    2 ar
     3    1   33 1
     4    2    3 ar
     5    2   34 1
     6    3    4 ar
     7    3   35 1
     8    4   11 1
     9    4    5 ar
    10    5    6 ar
    11    5    7 1
    12    6   36 1
    13    7    8 1
    14    7   12 1
    15    8    9 1
    16    8   37 1
    17    8   38 1
    18    9   10 2
    19    9   11 1
    20   12   13 1
    21   12   39 1
    22   12   40 1
    23   13   14 2
    24   13   15 am
    25   15   16 1
    26   15   41 1
    27   16   21 ar
    28   16   17 ar
    29   17   18 ar
    30   17   42 1
    31   18   19 ar
    32   18   43 1
    33   19   20 ar
    34   19   44 1
    35   20   21 ar
    36   20   22 1
    37   21   45 1
    38   22   23 2
    39   22   24 2
    40   22   25 1
    41   25   26 1
    42   26   31 ar
    43   26   27 ar
    44   27   28 ar
    45   27   46 1
    46   28   29 ar
    47   28   47 1
    48   29   30 ar
    49   29   48 1
    50   30   31 ar
    51   30   32 1
    52   31   49 1
@<TRIPOS>MOLECULE
ZINC59488194
   46    49     0     0     0
SMALL
USER_CHARGES

@<TRIPOS>ATOM
      1 C1         -0.0187    1.5258    0.0104 C.3       1 <0>        -0.1458
      2 C2          0.0021   -0.0041    0.0020 C.3       1 <0>        -0.1142
      3 H1          0.5293   -0.3651    0.8851 H         1 <0>         0.1285
      4 C3         -1.4117   -0.5257    0.0127 C.2       1 <0>         0.5342
      5 O1         -1.9274   -0.9011   -1.0188 O.2       1 <0>        -0.4488
      6 N1         -2.1031   -0.5750    1.1686 N.am      1 <0>        -0.6165
      7 C4         -3.4072   -1.0561    1.1785 C.2       1 <0>         0.2728
      8 N2         -4.1198   -1.5068    0.1688 N.2       1 <0>        -0.5214
      9 C5         -5.3571   -1.9328    0.3433 C.2       1 <0>         0.0641
     10 C6         -5.8537   -1.8834    1.6038 C.2       1 <0>        -0.2452
     11 S1         -4.4552   -1.2102    2.4863 S.3       1 <0>         0.1127
     12 S2          0.8511   -0.5891   -1.4904 S.3       1 <0>         0.1038
     13 C7          2.5089   -0.0285   -1.2851 C.2       1 <0>         0.0797
     14 N3          3.0323    0.6504   -0.2883 N.2       1 <0>        -0.4888
     15 C8          4.3317    1.0161   -0.2626 C.ar      1 <0>         0.0418
     16 C9          5.0119    1.7432    0.7441 C.ar      1 <0>        -0.0348
     17 C10         6.3314    2.0375    0.6252 C.ar      1 <0>        -0.1584
     18 C11         7.0724    1.6351   -0.4939 C.ar      1 <0>         0.1526
     19 C12         6.4324    0.9147   -1.5071 C.ar      1 <0>        -0.0755
     20 C13         5.1009    0.6208   -1.3826 C.ar      1 <0>        -0.1127
     21 S3          3.9085   -0.2451   -2.3753 S.3       1 <0>         0.0464
     22 N4          8.4013    1.9427   -0.5938 N.2       1 <0>        -0.4619
     23 C14         8.8158    3.1445   -0.3045 C.2       1 <0>         0.2461
     24 C15        10.2446    3.4752   -0.4119 C.ar      1 <0>        -0.2350
     25 C16        10.6947    4.7614   -0.0970 C.ar      1 <0>         0.0373
     26 C17        12.0352    5.0639   -0.1996 C.ar      1 <0>        -0.1841
     27 C18        12.9397    4.0999   -0.6138 C.ar      1 <0>        -0.0125
     28 C19        12.5088    2.8255   -0.9284 C.ar      1 <0>        -0.2363
     29 C20        11.1656    2.5007   -0.8254 C.ar      1 <0>         0.3228
     30 O2         10.7420    1.2473   -1.1285 O.3       1 <0>        -0.6096
     31 N5         12.5108    6.4255    0.1339 N.pl3     1 <0>         0.0715
     32 O3         11.7237    7.2690    0.4952 O.2       1 <0>        -0.2205
     33 O4         13.6862    6.6939    0.0448 O.3       1 <0>        -0.2178
     34 H2          1.0039    1.9031    0.0027 H         1 <0>         0.0921
     35 H3         -0.5459    1.8868   -0.8726 H         1 <0>         0.0756
     36 H4         -0.5289    1.8773    0.9072 H         1 <0>         0.0718
     37 H5         -1.6907   -0.2747    1.9936 H         1 <0>         0.4293
     38 H6         -5.9476   -2.3037   -0.4814 H         1 <0>         0.1770
     39 H7         -6.8260   -2.1746    1.9731 H         1 <0>         0.1999
     40 H8          4.4718    2.0693    1.6207 H         1 <0>         0.1298
     41 H9          6.8210    2.5944    1.4104 H         1 <0>         0.1329
     42 H10         6.9826    0.5941   -2.3794 H         1 <0>         0.1402
     43 H11         8.1099    3.8972    0.0141 H         1 <0>         0.0952
     44 H12         9.9930    5.5162    0.2256 H         1 <0>         0.1312
     45 H13        13.9884    4.3462   -0.6916 H         1 <0>         0.1267
     46 H14        13.2206    2.0800   -1.2509 H         1 <0>         0.1240
@<TRIPOS>BOND
     1    1    2 1
     2    1   34 1
     3    1   35 1
     4    1   36 1
     5    2    3 1
     6    2    4 1
     7    2   12 1
     8    4    5 2
     9    4    6 am
    10    6    7 1
    11    6   37 1
    12    7   11 1
    13    7    8 2
    14    8    9 1
    15    9   10 2
    16    9   38 1
    17   10   11 1
    18   10   39 1
    19   12   13 1
    20   13   21 1
    21   13   14 2
    22   14   15 1
    23   15   20 ar
    24   15   16 ar
    25   16   17 ar
    26   16   40 1
    27   17   18 ar
    28   17   41 1
    29   18   19 ar
    30   18   22 1
    31   19   20 ar
    32   19   42 1
    33   20   21 1
    34   22   23 2
    35   23   24 1
    36   23   43 1
    37   24   29 ar
    38   24   25 ar
    39   25   26 ar
    40   25   44 1
    41   26   27 ar
    42   26   31 1
    43   27   28 ar
    44   27   45 1
    45   28   29 ar
    46   28   46 1
    47   29   30 1
    48   31   32 2
    49   31   33 1
@<TRIPOS>MOLECULE
ZINC13212240
   51    54     0     0     0
SMALL
USER_CHARGES
3-[[4-(1,3-benzothiazol-2-ylmethyl-methyl-amino)-3-nitro-phenyl]sulfonylamino]benzoic acid
@<TRIPOS>ATOM
      1 C1          5.5429    1.2727   -5.0446 C.3       1 <0>         0.0273
      2 N1          4.0876    1.1102   -5.1613 N.pl3     1 <0>        -0.4977
      3 C2          3.7453   -0.2321   -5.6501 C.3       1 <0>         0.1421
      4 C3          4.2385   -0.3924   -7.0650 C.2       1 <0>         0.1425
      5 N2          5.3949   -0.8337   -7.4730 N.2       1 <0>        -0.5034
      6 C4          5.7140   -0.9293   -8.7805 C.ar      1 <0>         0.0767
      7 C5          6.9131   -1.3832   -9.3736 C.ar      1 <0>        -0.0591
      8 C6          7.0527   -1.4079  -10.7266 C.ar      1 <0>        -0.1135
      9 C7          6.0330   -0.9920  -11.5715 C.ar      1 <0>        -0.0960
     10 C8          4.8440   -0.5409  -11.0301 C.ar      1 <0>        -0.0650
     11 C9          4.6931   -0.5125   -9.6649 C.ar      1 <0>        -0.1569
     12 S1          3.4000   -0.0407   -8.5442 S.3       1 <0>         0.0806
     13 C10         3.4551    1.3763   -3.9447 C.ar      1 <0>         0.2065
     14 C11         3.7026    0.5703   -2.8404 C.ar      1 <0>        -0.1670
     15 C12         3.0800    0.8397   -1.6377 C.ar      1 <0>         0.0462
     16 C13         2.2028    1.9040   -1.5344 C.ar      1 <0>        -0.6804
     17 C14         1.9543    2.7081   -2.6313 C.ar      1 <0>         0.0520
     18 C15         2.5777    2.4475   -3.8360 C.ar      1 <0>        -0.0440
     19 N3          2.3115    3.3090   -5.0096 N.pl3     1 <0>         0.0281
     20 O1          1.5422    4.2485   -4.9135 O.2       1 <0>        -0.1855
     21 O2          2.8616    3.0786   -6.0716 O.3       1 <0>        -0.0952
     22 S2          1.4058    2.2403    0.0007 S.o2      1 <0>         2.6963
     23 O3          1.0579    3.6180   -0.0157 O.2       1 <0>        -0.9461
     24 O4          2.2229    1.6730    1.0154 O.2       1 <0>        -0.9378
     25 N4         -0.0169    1.3929    0.0097 N.pl3     1 <0>        -1.0447
     26 C16         0.0021   -0.0041    0.0020 C.ar      1 <0>         0.1054
     27 C17         0.8709   -0.6922    0.8414 C.ar      1 <0>        -0.1563
     28 C18         0.8932   -2.0741    0.8380 C.ar      1 <0>        -0.1184
     29 C19         0.0530   -2.7807    0.0017 C.ar      1 <0>        -0.0785
     30 C20        -0.8234   -2.0994   -0.8453 C.ar      1 <0>        -0.0967
     31 C21        -0.8495   -0.7042   -0.8385 C.ar      1 <0>        -0.0900
     32 C22        -1.7240   -2.8533   -1.7417 C.2       1 <0>         0.4877
     33 O5         -2.4856   -2.2585   -2.4777 O.co2     1 <0>        -0.6278
     34 H1          5.9265    0.5826   -4.2930 H         1 <0>         0.0442
     35 H2          6.0105    1.0595   -6.0058 H         1 <0>         0.0913
     36 H3          5.7717    2.2964   -4.7483 H         1 <0>         0.0753
     37 H4          4.2163   -0.9815   -5.0140 H         1 <0>         0.0881
     38 H5          2.6634   -0.3628   -5.6254 H         1 <0>         0.1125
     39 H6          7.7274   -1.7143   -8.7462 H         1 <0>         0.1312
     40 H7          7.9801   -1.7597  -11.1539 H         1 <0>         0.1328
     41 H8          6.1674   -1.0209  -12.6428 H         1 <0>         0.1378
     42 H9          4.0413   -0.2135  -11.6742 H         1 <0>         0.1348
     43 H10         4.3843   -0.2634   -2.9215 H         1 <0>         0.1580
     44 H11         3.2751    0.2160   -0.7778 H         1 <0>         0.1638
     45 H12         1.2722    3.5411   -2.5461 H         1 <0>         0.1734
     46 H13        -0.8634    1.8664    0.0163 H         1 <0>         0.4285
     47 H14         1.5304   -0.1449    1.4987 H         1 <0>         0.1513
     48 H15         1.5704   -2.6029    1.4924 H         1 <0>         0.1264
     49 H16         0.0731   -3.8605    0.0027 H         1 <0>         0.1351
     50 H17        -1.5280   -0.1717   -1.4884 H         1 <0>         0.1330
     51 O6         -1.7005   -4.2002   -1.7427 O.co2     1 <0>        -0.7489
@<TRIPOS>BOND
     1    1    2 1
     2    1   34 1
     3    1   35 1
     4    1   36 1
     5    2    3 1
     6    2   13 1
     7    3    4 1
     8    3   37 1
     9    3   38 1
    10    4   12 1
    11    4    5 2
    12    5    6 1
    13    6   11 ar
    14    6    7 ar
    15    7    8 ar
    16    7   39 1
    17    8    9 ar
    18    8   40 1
    19    9   10 ar
    20    9   41 1
    21   10   11 ar
    22   10   42 1
    23   11   12 1
    24   13   18 ar
    25   13   14 ar
    26   14   15 ar
    27   14   43 1
    28   15   16 ar
    29   15   44 1
    30   16   17 ar
    31   16   22 1
    32   17   18 ar
    33   17   45 1
    34   18   19 1
    35   19   20 2
    36   19   21 1
    37   22   23 2
    38   22   24 2
    39   22   25 1
    40   25   26 1
    41   25   46 1
    42   26   31 ar
    43   26   27 ar
    44   27   28 ar
    45   27   47 1
    46   28   29 ar
    47   28   48 1
    48   29   30 ar
    49   29   49 1
    50   30   31 ar
    51   30   32 1
    52   31   50 1
    53   32   33 2
    54   32   51 1
@<TRIPOS>MOLECULE
ZINC21011008
   53    58     0     0     0
SMALL
USER_CHARGES
N-[2-[1-(2-fluorophenyl)-4-oxo-5H-pyrazolo[5,4-d]pyrimidin-6-yl]-5-methyl-pyrazol-3-yl]naphthalene-2-carboxamide
@<TRIPOS>ATOM
      1 C1          0.6450   12.8322    0.5789 C.3       1 <0>        -0.0677
      2 C2          1.5387   11.6273    0.4358 C.2       1 <0>         0.0779
      3 C3          1.1105   10.2984    0.3484 C.2       1 <0>        -0.2752
      4 C4          2.2136    9.5107    0.2318 C.2       1 <0>         0.3404
      5 N1          3.3035   10.3317    0.2383 N.pl3     1 <0>        -0.3124
      6 N2          2.8446   11.6489    0.3673 N.2       1 <0>        -0.2592
      7 C5          4.6256    9.9341    0.1363 C.ar      1 <0>         0.6138
      8 N3          5.1559    9.7464   -1.1044 N.ar      1 <0>        -0.6475
      9 C6          6.4451    9.3583   -1.2427 C.ar      1 <0>         0.5572
     10 O1          6.9373    9.1849   -2.3436 O.3       1 <0>        -0.5684
     11 C7          7.2256    9.1541   -0.0237 C.ar      1 <0>        -0.3886
     12 C8          8.5517    8.7650    0.2460 C.2       1 <0>         0.1325
     13 N4          8.7200    8.7456    1.5397 N.2       1 <0>        -0.2904
     14 N5          7.5272    9.1164    2.1731 N.pl3     1 <0>        -0.3351
     15 C9          6.5955    9.3714    1.2132 C.ar      1 <0>         0.3699
     16 N6          5.3136    9.7598    1.2363 N.ar      1 <0>        -0.6187
     17 C10         7.3267    9.2084    3.5571 C.ar      1 <0>         0.1511
     18 C11         6.0626    9.4841    4.0601 C.ar      1 <0>        -0.1166
     19 C12         5.8677    9.5737    5.4247 C.ar      1 <0>        -0.1059
     20 C13         6.9300    9.3893    6.2908 C.ar      1 <0>        -0.1171
     21 C14         8.1910    9.1146    5.7949 C.ar      1 <0>        -0.1397
     22 C15         8.3924    9.0181    4.4298 C.ar      1 <0>         0.0841
     23 F1          9.6234    8.7446    3.9451 F         1 <0>        -0.1208
     24 N7          2.2275    8.1231    0.1203 N.am      1 <0>        -0.6513
     25 C16         1.0681    7.4438    0.0162 C.2       1 <0>         0.5711
     26 O2          0.0168    8.0468   -0.0801 O.2       1 <0>        -0.5094
     27 C17         1.0748    5.9665    0.0190 C.ar      1 <0>        -0.1262
     28 C18         2.2992    5.2740    0.0228 C.ar      1 <0>        -0.0884
     29 C19         2.3313    3.9172    0.0255 C.ar      1 <0>        -0.1059
     30 C20         1.1301    3.1846    0.0240 C.ar      1 <0>        -0.0322
     31 C21         1.1382    1.7797    0.0259 C.ar      1 <0>        -0.1107
     32 C22        -0.0402    1.0979    0.0239 C.ar      1 <0>        -0.1071
     33 C23        -1.2598    1.7721    0.0146 C.ar      1 <0>        -0.1217
     34 C24        -1.3078    3.1322    0.0180 C.ar      1 <0>        -0.0936
     35 C25        -0.1108    3.8709    0.0201 C.ar      1 <0>        -0.0636
     36 C26        -0.1246    5.2738    0.0183 C.ar      1 <0>        -0.0293
     37 H1         -0.4056   12.5078    0.6098 H         1 <0>         0.0772
     38 H2          0.7961   13.5047   -0.2784 H         1 <0>         0.0739
     39 H3          0.8922   13.3636    1.5098 H         1 <0>         0.0734
     40 H4          0.0858    9.9580    0.3716 H         1 <0>         0.1724
     41 H5          9.3018    8.5230   -0.4924 H         1 <0>         0.1894
     42 H6          5.2320    9.6287    3.3851 H         1 <0>         0.1644
     43 H7          4.8841    9.7878    5.8159 H         1 <0>         0.1331
     44 H8          6.7742    9.4605    7.3571 H         1 <0>         0.1315
     45 H9          9.0184    8.9711    6.4740 H         1 <0>         0.1373
     46 H10         3.1847    7.5811    0.1172 H         1 <0>         0.4359
     47 H11         3.2256    5.8292    0.0240 H         1 <0>         0.1252
     48 H12         3.2793    3.3997    0.0285 H         1 <0>         0.1350
     49 H13         2.0753    1.2429    0.0286 H         1 <0>         0.1296
     50 H14        -0.0296    0.0180    0.0250 H         1 <0>         0.1243
     51 H15        -2.1802    1.2072    0.0086 H         1 <0>         0.1249
     52 H16        -2.2600    3.6417    0.0150 H         1 <0>         0.1313
     53 H17        -1.0626    5.8091    0.0161 H         1 <0>         0.1456
@<TRIPOS>BOND
     1    1    2 1
     2    1   37 1
     3    1   38 1
     4    1   39 1
     5    2    6 2
     6    2    3 1
     7    3    4 2
     8    3   40 1
     9    4    5 1
    10    4   24 1
    11    5    6 1
    12    5    7 1
    13    7   16 ar
    14    7    8 ar
    15    8    9 ar
    16    9   10 1
    17    9   11 ar
    18   11   15 ar
    19   11   12 1
    20   12   13 2
    21   12   41 1
    22   13   14 1
    23   14   15 1
    24   14   17 1
    25   15   16 ar
    26   17   22 ar
    27   17   18 ar
    28   18   19 ar
    29   18   42 1
    30   19   20 ar
    31   19   43 1
    32   20   21 ar
    33   20   44 1
    34   21   22 ar
    35   21   45 1
    36   22   23 1
    37   24   25 am
    38   24   46 1
    39   25   26 2
    40   25   27 1
    41   27   36 ar
    42   27   28 ar
    43   28   29 ar
    44   28   47 1
    45   29   30 ar
    46   29   48 1
    47   30   35 ar
    48   30   31 ar
    49   31   32 ar
    50   31   49 1
    51   32   33 ar
    52   32   50 1
    53   33   34 ar
    54   33   51 1
    55   34   35 ar
    56   34   52 1
    57   35   36 ar
    58   36   53 1
@<TRIPOS>MOLECULE
ZINC09539771
   49    52     0     0     0
SMALL
USER_CHARGES

@<TRIPOS>ATOM
      1 C1         -1.3368    1.1512   -0.0679 C.ar      1 <0>        -0.0628
      2 C2         -0.3066    2.0618    0.0801 C.ar      1 <0>        -0.2164
      3 C3          0.9958    1.6200    0.2234 C.ar      1 <0>        -0.0707
      4 C4          1.2719    0.2658    0.2191 C.ar      1 <0>        -0.0924
      5 C5          0.2384   -0.6516    0.0709 C.ar      1 <0>         0.2865
      6 C6         -1.0682   -0.2036   -0.0728 C.ar      1 <0>        -0.2558
      7 N1          0.5136   -2.0218    0.0655 N.2       1 <0>        -1.0701
      8 S1         -0.7192   -3.1132   -0.1112 S.o2      1 <0>         2.6058
      9 O1         -1.5304   -3.0012    1.0502 O.2       1 <0>        -1.0239
     10 O2         -1.2368   -2.9326   -1.4222 O.2       1 <0>        -1.0238
     11 C7         -0.0009   -4.7216   -0.0705 C.ar      1 <0>        -0.6619
     12 C8          0.4269   -5.3161   -1.2438 C.ar      1 <0>         0.0668
     13 C9          0.9907   -6.5762   -1.2155 C.ar      1 <0>        -0.2184
     14 C10         1.1280   -7.2471   -0.0066 C.ar      1 <0>         0.3060
     15 C11         0.6973   -6.6472    1.1697 C.ar      1 <0>        -0.1391
     16 C12         0.1391   -5.3843    1.1349 C.ar      1 <0>         0.0846
     17 N2          0.8411   -7.3584    2.4597 N.pl3     1 <0>         0.0454
     18 O3          0.6646   -8.5531    2.5143 O.2       1 <0>        -0.1824
     19 O4          1.1352   -6.7445    3.4589 O.3       1 <0>        -0.1457
     20 N3          1.6974   -8.5221    0.0256 N.pl3     1 <0>        -0.7253
     21 C13         2.0325   -9.2065   -1.2256 C.3       1 <0>         0.1285
     22 C14         2.6377  -10.5761   -0.9115 C.3       1 <0>         0.0397
     23 H1          3.4898  -10.4567   -0.2423 H         1 <0>         0.0939
     24 C15         3.0921  -11.2518   -2.2124 C.3       1 <0>         0.0319
     25 O5          3.6391  -12.5336   -1.8843 O.3       1 <0>        -0.3031
     26 C16         2.9212  -13.3018   -1.0200 C.ar      1 <0>         0.0451
     27 C17         3.1841  -14.6612   -0.9378 C.ar      1 <0>        -0.1140
     28 C18         2.4658  -15.4536   -0.0626 C.ar      1 <0>        -0.1169
     29 C19         1.4840  -14.8937    0.7338 C.ar      1 <0>        -0.1142
     30 C20         1.2161  -13.5402    0.6557 C.ar      1 <0>        -0.1102
     31 C21         1.9319  -12.7396   -0.2221 C.ar      1 <0>         0.0533
     32 O6          1.6513  -11.4095   -0.2931 O.3       1 <0>        -0.2955
     33 Cl1         2.9073   -0.2884    0.3979 Cl        1 <0>        -0.0914
     34 H2         -2.3533    1.4998   -0.1755 H         1 <0>         0.1079
     35 H3         -0.5198    3.1206    0.0835 H         1 <0>         0.1105
     36 H4          1.7980    2.3339    0.3385 H         1 <0>         0.1148
     37 H5         -1.8736   -0.9138   -0.1882 H         1 <0>         0.1041
     38 H6          0.3195   -4.7942   -2.1832 H         1 <0>         0.1557
     39 H7          1.3242   -7.0400   -2.1320 H         1 <0>         0.1474
     40 H8         -0.1920   -4.9154    2.0498 H         1 <0>         0.1603
     41 H9          1.8710   -8.9544    0.8764 H         1 <0>         0.4152
     42 H10         1.1293   -9.3365   -1.8218 H         1 <0>         0.0866
     43 H11         2.7539   -8.6100   -1.7841 H         1 <0>         0.0959
     44 H12         2.2391  -11.3759   -2.8795 H         1 <0>         0.0837
     45 H13         3.8531  -10.6406   -2.6976 H         1 <0>         0.1275
     46 H14         3.9506  -15.1009   -1.5586 H         1 <0>         0.1341
     47 H15         2.6720  -16.5119   -0.0003 H         1 <0>         0.1322
     48 H16         0.9253  -15.5153    1.4178 H         1 <0>         0.1331
     49 H17         0.4487  -13.1054    1.2789 H         1 <0>         0.1377
@<TRIPOS>BOND
     1    1    6 ar
     2    1    2 ar
     3    1   34 1
     4    2    3 ar
     5    2   35 1
     6    3    4 ar
     7    3   36 1
     8    4    5 ar
     9    4   33 1
    10    5    6 ar
    11    5    7 1
    12    6   37 1
    13    7    8 1
    14    8    9 2
    15    8   10 2
    16    8   11 1
    17   11   16 ar
    18   11   12 ar
    19   12   13 ar
    20   12   38 1
    21   13   14 ar
    22   13   39 1
    23   14   15 ar
    24   14   20 1
    25   15   16 ar
    26   15   17 1
    27   16   40 1
    28   17   18 2
    29   17   19 1
    30   20   21 1
    31   20   41 1
    32   21   22 1
    33   21   42 1
    34   21   43 1
    35   22   23 1
    36   22   32 1
    37   22   24 1
    38   24   25 1
    39   24   44 1
    40   24   45 1
    41   25   26 1
    42   26   31 ar
    43   26   27 ar
    44   27   28 ar
    45   27   46 1
    46   28   29 ar
    47   28   47 1
    48   29   30 ar
    49   29   48 1
    50   30   31 ar
    51   30   49 1
    52   31   32 1
@<TRIPOS>MOLECULE
ZINC39732271
   58    61     0     0     0
SMALL
USER_CHARGES

@<TRIPOS>ATOM
      1 C1          0.4712    1.3633    0.0448 C.3       1 <0>        -0.1531
      2 C2          0.1602   -0.1346    0.0209 C.3       1 <0>         0.0605
      3 O1          0.7396   -0.7228   -1.1455 O.3       1 <0>        -0.3516
      4 C3          0.5574   -2.0415   -1.3176 C.2       1 <0>         0.4735
      5 O2         -0.0730   -2.6754   -0.5048 O.2       1 <0>        -0.4788
      6 C4          1.1393   -2.7313   -2.5245 C.3       1 <0>        -0.0458
      7 H1          2.2211   -2.5983   -2.5233 H         1 <0>         0.1299
      8 C5          0.5532   -2.0914   -3.8035 C.3       1 <0>         0.1755
      9 H2          0.1792   -1.0855   -3.6126 H         1 <0>         0.1382
     10 S1         -0.8216   -3.2781   -4.1033 S.3       1 <0>        -0.0445
     11 C6         -0.1704   -4.6647   -3.1911 C.2       1 <0>        -0.1122
     12 C7          0.8219   -4.2127   -2.4497 C.2       1 <0>        -0.1790
     13 C8          1.4194   -5.3888   -1.6678 C.3       1 <0>        -0.0562
     14 C9          0.3464   -6.4939   -1.7072 C.3       1 <0>        -0.1156
     15 C10        -0.3958   -6.1469   -3.0082 C.3       1 <0>        -0.0491
     16 N1          1.5222   -2.1001   -4.9022 N.am      1 <0>        -0.7183
     17 C11         1.1360   -2.4729   -6.1385 C.2       1 <0>         0.5347
     18 O3         -0.0138   -2.8010   -6.3414 O.2       1 <0>        -0.4740
     19 C12         2.1329   -2.4819   -7.2686 C.3       1 <0>        -0.1124
     20 H3          2.8358   -1.6588   -7.1396 H         1 <0>         0.1166
     21 C13         2.8949   -3.8086   -7.2659 C.3       1 <0>        -0.1406
     22 S2          1.2595   -2.2894   -8.8468 S.3       1 <0>         0.0537
     23 C14         2.5526   -2.1708  -10.0379 C.2       1 <0>         0.0637
     24 N2          3.8412   -2.2219   -9.7960 N.2       1 <0>        -0.2456
     25 N3          4.5064   -2.1046  -10.8903 N.2       1 <0>        -0.3399
     26 C15         3.6760   -1.9702  -11.9076 C.2       1 <0>         0.4458
     27 N4          2.4008   -2.0144  -11.3864 N.pl3     1 <0>        -0.4359
     28 C16         1.3160   -1.9040  -12.2115 C.2       1 <0>         0.1331
     29 C17         1.5145   -1.7543  -13.5398 C.2       1 <0>        -0.2163
     30 C18         2.8325   -1.7156  -14.0436 C.2       1 <0>         0.4547
     31 O4          3.0406   -1.5660  -15.3735 O.3       1 <0>        -0.6737
     32 N5          3.8610   -1.8179  -13.2275 N.2       1 <0>        -0.5754
     33 C19        -0.0808   -1.9489  -11.6478 C.3       1 <0>        -0.0584
     34 C20        -0.4154   -0.6009  -11.0061 C.3       1 <0>        -0.1452
     35 C21        -1.0759   -2.2391  -12.7732 C.3       1 <0>        -0.1428
     36 H4          1.5511    1.5100    0.0621 H         1 <0>         0.0675
     37 H5          0.0546    1.8351   -0.8452 H         1 <0>         0.0686
     38 H6          0.0293    1.8120    0.9344 H         1 <0>         0.0804
     39 H7          0.5768   -0.6064    0.9108 H         1 <0>         0.0683
     40 H8         -0.9197   -0.2813    0.0036 H         1 <0>         0.0700
     41 H9          2.3351   -5.7345   -2.1475 H         1 <0>         0.0763
     42 H10         1.6202   -5.0941   -0.6378 H         1 <0>         0.0712
     43 H11         0.8034   -7.4814   -1.7702 H         1 <0>         0.0818
     44 H12        -0.3176   -6.4258   -0.8454 H         1 <0>         0.0769
     45 H13        -1.4597   -6.3598   -2.9043 H         1 <0>         0.0797
     46 H14         0.0239   -6.7018   -3.8473 H         1 <0>         0.0880
     47 H15         2.4418   -1.8376   -4.7399 H         1 <0>         0.4101
     48 H16         3.6160   -3.8151   -8.0834 H         1 <0>         0.0902
     49 H17         3.4197   -3.9242   -6.3176 H         1 <0>         0.0625
     50 H18         2.1920   -4.6316   -7.3949 H         1 <0>         0.0688
     51 H19         0.6722   -1.6655  -14.2099 H         1 <0>         0.1487
     52 H20        -0.1438   -2.7350  -10.8954 H         1 <0>         0.0926
     53 H21        -0.4544    0.1688  -11.7770 H         1 <0>         0.0586
     54 H22        -1.3829   -0.6656  -10.5082 H         1 <0>         0.0673
     55 H23         0.3526   -0.3453  -10.2761 H         1 <0>         0.0646
     56 H24        -0.7732   -3.1430  -13.3017 H         1 <0>         0.0628
     57 H25        -2.0707   -2.3810  -12.3509 H         1 <0>         0.0648
     58 H26        -1.0927   -1.4000  -13.4686 H         1 <0>         0.0648
@<TRIPOS>BOND
     1    1    2 1
     2    1   36 1
     3    1   37 1
     4    1   38 1
     5    2    3 1
     6    2   39 1
     7    2   40 1
     8    3    4 1
     9    4    5 2
    10    4    6 1
    11    6    7 1
    12    6   12 1
    13    6    8 1
    14    8    9 1
    15    8   10 1
    16    8   16 1
    17   10   11 1
    18   11   15 1
    19   11   12 2
    20   12   13 1
    21   13   14 1
    22   13   41 1
    23   13   42 1
    24   14   15 1
    25   14   43 1
    26   14   44 1
    27   15   45 1
    28   15   46 1
    29   16   17 am
    30   16   47 1
    31   17   18 2
    32   17   19 1
    33   19   20 1
    34   19   21 1
    35   19   22 1
    36   21   48 1
    37   21   49 1
    38   21   50 1
    39   22   23 1
    40   23   27 1
    41   23   24 2
    42   24   25 1
    43   25   26 2
    44   26   32 1
    45   26   27 1
    46   27   28 1
    47   28   29 2
    48   28   33 1
    49   29   30 1
    50   29   51 1
    51   30   31 1
    52   30   32 2
    53   33   34 1
    54   33   35 1
    55   33   52 1
    56   34   53 1
    57   34   54 1
    58   34   55 1
    59   35   56 1
    60   35   57 1
    61   35   58 1
@<TRIPOS>MOLECULE
ZINC59437306
   60    63     0     0     0
SMALL
USER_CHARGES

@<TRIPOS>ATOM
      1 C1          0.0194    1.5562    0.4007 C.3       1 <0>        -0.1504
      2 C2          0.0343    0.0341    0.2463 C.3       1 <0>         0.0645
      3 O1         -1.3050   -0.4433    0.1036 O.3       1 <0>        -0.3444
      4 C3         -1.4686   -1.7762   -0.0441 C.2       1 <0>         0.5319
      5 O2         -0.4976   -2.5119   -0.0511 O.2       1 <0>        -0.5213
      6 C4         -2.7572   -2.3132   -0.1893 C.2       1 <0>        -0.3106
      7 C5         -2.9405   -3.6366   -0.4818 C.2       1 <0>         0.2680
      8 N1         -4.1606   -4.1364   -0.6174 N.2       1 <0>        -0.5460
      9 C6         -5.2722   -3.4485   -0.4914 C.2       1 <0>         0.3586
     10 N2         -5.3086   -2.1074   -0.1993 N.am      1 <0>        -0.5772
     11 C7         -6.5074   -1.5156   -0.0970 C.2       1 <0>         0.5627
     12 O3         -6.6150   -0.3294    0.1592 O.2       1 <0>        -0.4977
     13 C8         -7.6446   -2.3391   -0.3024 C.2       1 <0>        -0.4268
     14 C9         -8.9614   -2.0138   -0.2613 C.2       1 <0>         0.3311
     15 N3         -9.3401   -0.7275    0.0107 N.pl3     1 <0>        -0.5950
     16 C10       -10.6961   -0.3925    0.0530 C.ar      1 <0>         0.1089
     17 C11       -11.6608   -1.3678   -0.1757 C.ar      1 <0>        -0.1663
     18 C12       -13.0034   -1.0421   -0.1350 C.ar      1 <0>        -0.1029
     19 C13       -13.3966    0.2532    0.1328 C.ar      1 <0>        -0.1031
     20 C14       -12.4360    1.2412    0.3641 C.ar      1 <0>        -0.0862
     21 C15       -11.0798    0.9108    0.3286 C.ar      1 <0>        -0.0774
     22 C16       -10.0369    1.9685    0.5829 C.3       1 <0>        -0.1094
     23 C17       -12.8533    2.6273    0.6502 C.2       1 <0>         0.5238
     24 O4        -13.6704    2.8501    1.5324 O.co2     1 <0>        -0.6798
     25 O5        -12.3820    3.5532    0.0052 O.co2     1 <0>        -0.6752
     26 S1         -6.8792   -3.9159   -0.6289 S.3       1 <0>         0.2319
     27 C18        -3.9855   -1.4482   -0.0211 C.3       1 <0>         0.2483
     28 H1         -3.9555   -1.0136    0.9781 H         1 <0>         0.0915
     29 C19        -3.8973   -0.3190   -1.0152 C.ar      1 <0>        -0.0539
     30 C20        -4.2521   -0.5311   -2.3349 C.ar      1 <0>        -0.1388
     31 C21        -4.1723    0.5026   -3.2493 C.ar      1 <0>        -0.0825
     32 C22        -3.7372    1.7506   -2.8466 C.ar      1 <0>        -0.2024
     33 C23        -3.3807    1.9660   -1.5234 C.ar      1 <0>         0.1262
     34 C24        -3.4675    0.9283   -0.6063 C.ar      1 <0>        -0.0939
     35 O6         -2.9525    3.1926   -1.1249 O.3       1 <0>        -0.3149
     36 C25        -2.8940    4.2148   -2.1217 C.3       1 <0>         0.0278
     37 C26        -1.7431   -4.5356   -0.6521 C.3       1 <0>        -0.1120
     38 H2          1.0410    1.9203    0.5096 H         1 <0>         0.0740
     39 H3         -0.4347    2.0065   -0.4819 H         1 <0>         0.0672
     40 H4         -0.5586    1.8261    1.2845 H         1 <0>         0.0655
     41 H5          0.6123   -0.2358   -0.6375 H         1 <0>         0.0621
     42 H6          0.4884   -0.4163    1.1289 H         1 <0>         0.0632
     43 H7         -9.7104   -2.7702   -0.4432 H         1 <0>         0.1814
     44 H8         -8.6674   -0.0481    0.1741 H         1 <0>         0.4309
     45 H9        -11.3596   -2.3834   -0.3861 H         1 <0>         0.1224
     46 H10       -13.7475   -1.8042   -0.3139 H         1 <0>         0.1261
     47 H11       -14.4468    0.5035    0.1632 H         1 <0>         0.1263
     48 H12        -9.6986    2.3812   -0.3675 H         1 <0>         0.0737
     49 H13       -10.4669    2.7637    1.1918 H         1 <0>         0.0856
     50 H14        -9.1908    1.5256    1.1084 H         1 <0>         0.0496
     51 H15        -4.5918   -1.5061   -2.6517 H         1 <0>         0.1079
     52 H16        -4.4500    0.3345   -4.2793 H         1 <0>         0.1225
     53 H17        -3.6743    2.5577   -3.5614 H         1 <0>         0.1261
     54 H18        -3.1951    1.0947    0.4254 H         1 <0>         0.1307
     55 H19        -2.5371    5.1412   -1.6716 H         1 <0>         0.0990
     56 H20        -2.2116    3.9099   -2.9151 H         1 <0>         0.0527
     57 H21        -3.8885    4.3730   -2.5387 H         1 <0>         0.0554
     58 H22        -1.4130   -4.8901    0.3244 H         1 <0>         0.0904
     59 H23        -2.0142   -5.3877   -1.2754 H         1 <0>         0.0726
     60 H24        -0.9358   -3.9792   -1.1286 H         1 <0>         0.1072
@<TRIPOS>BOND
     1    1    2 1
     2    1   38 1
     3    1   39 1
     4    1   40 1
     5    2    3 1
     6    2   41 1
     7    2   42 1
     8    3    4 1
     9    4    5 2
    10    4    6 1
    11    6   27 1
    12    6    7 2
    13    7    8 1
    14    7   37 1
    15    8    9 2
    16    9   26 1
    17    9   10 1
    18   10   11 am
    19   10   27 1
    20   11   12 2
    21   11   13 1
    22   13   14 2
    23   13   26 1
    24   14   15 1
    25   14   43 1
    26   15   16 1
    27   15   44 1
    28   16   21 ar
    29   16   17 ar
    30   17   18 ar
    31   17   45 1
    32   18   19 ar
    33   18   46 1
    34   19   20 ar
    35   19   47 1
    36   20   21 ar
    37   20   23 1
    38   21   22 1
    39   22   48 1
    40   22   49 1
    41   22   50 1
    42   23   24 2
    43   23   25 1
    44   27   28 1
    45   27   29 1
    46   29   34 ar
    47   29   30 ar
    48   30   31 ar
    49   30   51 1
    50   31   32 ar
    51   31   52 1
    52   32   33 ar
    53   32   53 1
    54   33   34 ar
    55   33   35 1
    56   34   54 1
    57   35   36 1
    58   36   55 1
    59   36   56 1
    60   36   57 1
    61   37   58 1
    62   37   59 1
    63   37   60 1
@<TRIPOS>MOLECULE
ZINC02422718
   54    58     0     0     0
SMALL
USER_CHARGES
amino-N-[(4-fluorophenyl)methyl]-(4-sulfamoylphenyl)-BLAHcarboxamide
@<TRIPOS>ATOM
      1 C1         -7.2613    7.7375    4.9991 C.ar      1 <0>        -0.0991
      2 C2         -6.7690    7.6793    3.6963 C.ar      1 <0>        -0.1001
      3 C3         -5.8362    6.7550    3.3412 C.ar      1 <0>        -0.0837
      4 C4         -5.3570    5.8403    4.2973 C.ar      1 <0>         0.0964
      5 C5         -5.8578    5.8998    5.6220 C.ar      1 <0>         0.0927
      6 C6         -6.8223    6.8708    5.9511 C.ar      1 <0>        -0.0828
      7 N1         -5.4190    5.0417    6.5505 N.ar      1 <0>        -0.4149
      8 C7         -4.5156    4.1385    6.2255 C.ar      1 <0>         0.1788
      9 C8         -3.8215    3.0659    6.9568 C.2       1 <0>        -0.3082
     10 C9         -2.9719    2.4508    6.0440 C.2       1 <0>         0.4795
     11 N2         -3.0779    3.0436    4.8213 N.pl3     1 <0>        -0.4515
     12 C10        -3.9918    4.0792    4.8584 C.ar      1 <0>         0.2866
     13 N3         -4.4396    4.9266    3.9566 N.ar      1 <0>        -0.4330
     14 C11        -2.3549    2.6594    3.6842 C.ar      1 <0>         0.1713
     15 C12        -2.5602    1.4076    3.1195 C.ar      1 <0>        -0.1361
     16 C13        -1.8457    1.0316    1.9989 C.ar      1 <0>        -0.0017
     17 C14        -0.9267    1.9002    1.4394 C.ar      1 <0>        -0.6683
     18 C15        -0.7160    3.1453    2.0028 C.ar      1 <0>         0.0006
     19 C16        -1.4315    3.5293    3.1201 C.ar      1 <0>        -0.1153
     20 S1         -0.0172    1.4168    0.0098 S.o2      1 <0>         2.7031
     21 O1          0.0021   -0.0041    0.0020 O.2       1 <0>        -0.9573
     22 O2          1.1718    2.1948    0.0027 O.2       1 <0>        -0.9565
     23 N4         -0.8975    1.8855   -1.3122 N.pl3     1 <0>        -1.2483
     24 N5         -2.1441    1.3973    6.3332 N.pl3     1 <0>        -0.8255
     25 C17        -3.9922    2.7160    8.3652 C.2       1 <0>         0.6111
     26 O3         -3.2957    3.2446    9.2127 O.2       1 <0>        -0.5260
     27 N6         -4.9206    1.8081    8.7263 N.am      1 <0>        -0.7185
     28 C18        -5.0918    1.4573   10.1383 C.3       1 <0>         0.1614
     29 C19        -6.1848    0.4283   10.2713 C.ar      1 <0>        -0.1216
     30 C20        -7.4940    0.8315   10.4573 C.ar      1 <0>        -0.0685
     31 C21        -8.4978   -0.1112   10.5746 C.ar      1 <0>        -0.1549
     32 C22        -8.1904   -1.4600   10.5163 C.ar      1 <0>         0.1076
     33 C23        -6.8780   -1.8626   10.3354 C.ar      1 <0>        -0.1561
     34 C24        -5.8766   -0.9181   10.2130 C.ar      1 <0>        -0.0709
     35 F1         -9.1702   -2.3824   10.6356 F         1 <0>        -0.1371
     36 H1         -8.0012    8.4811    5.2562 H         1 <0>         0.1365
     37 H2         -7.1333    8.3784    2.9581 H         1 <0>         0.1362
     38 H3         -5.4647    6.7228    2.3276 H         1 <0>         0.1378
     39 H4         -7.2123    6.9277    6.9566 H         1 <0>         0.1402
     40 H5         -3.2776    0.7286    3.5562 H         1 <0>         0.1440
     41 H6         -2.0052    0.0582    1.5590 H         1 <0>         0.1568
     42 H7          0.0056    3.8199    1.5662 H         1 <0>         0.1566
     43 H8         -1.2697    4.5036    3.5571 H         1 <0>         0.1430
     44 H9         -1.7474    2.3376   -1.1935 H         1 <0>         0.4180
     45 H10        -0.5632    1.7079   -2.2053 H         1 <0>         0.4237
     46 H11        -1.5783    1.0208    5.6410 H         1 <0>         0.4111
     47 H12        -2.1240    1.0282    7.2300 H         1 <0>         0.4297
     48 H13        -5.4754    1.3870    8.0512 H         1 <0>         0.4027
     49 H14        -4.1589    1.0488   10.5269 H         1 <0>         0.0807
     50 H15        -5.3615    2.3490   10.7041 H         1 <0>         0.0814
     51 H16        -7.7330    1.8835   10.5068 H         1 <0>         0.1367
     52 H17        -9.5211    0.2040   10.7157 H         1 <0>         0.1386
     53 H18        -6.6371   -2.9144   10.2894 H         1 <0>         0.1381
     54 H19        -4.8530   -1.2319   10.0715 H         1 <0>         0.1352
@<TRIPOS>BOND
     1    1    6 ar
     2    1    2 ar
     3    1   36 1
     4    2    3 ar
     5    2   37 1
     6    3    4 ar
     7    3   38 1
     8    4   13 ar
     9    4    5 ar
    10    5    6 ar
    11    5    7 ar
    12    6   39 1
    13    7    8 ar
    14    8   12 ar
    15    8    9 1
    16    9   10 2
    17    9   25 1
    18   10   11 1
    19   10   24 1
    20   11   12 1
    21   11   14 1
    22   12   13 ar
    23   14   19 ar
    24   14   15 ar
    25   15   16 ar
    26   15   40 1
    27   16   17 ar
    28   16   41 1
    29   17   18 ar
    30   17   20 1
    31   18   19 ar
    32   18   42 1
    33   19   43 1
    34   20   21 2
    35   20   22 2
    36   20   23 1
    37   23   44 1
    38   23   45 1
    39   24   46 1
    40   24   47 1
    41   25   26 2
    42   25   27 am
    43   27   28 1
    44   27   48 1
    45   28   29 1
    46   28   49 1
    47   28   50 1
    48   29   34 ar
    49   29   30 ar
    50   30   31 ar
    51   30   51 1
    52   31   32 ar
    53   31   52 1
    54   32   33 ar
    55   32   35 1
    56   33   34 ar
    57   33   53 1
    58   34   54 1
@<TRIPOS>MOLECULE
ZINC12706221
   62    65     0     0     0
SMALL
USER_CHARGES
4-amino-N'-(4-fluorophenyl)-N'-[(1S)-2-oxo-1-(p-tolyl)-2-[[(2R)-tetrahydrofuran-2-yl]methylamino]ethyl]isothiazole-3,5-dicarboxamide
@<TRIPOS>ATOM
      1 C1         -5.4917   -1.0948   -1.8950 C.3       1 <0>        -0.1199
      2 C2         -4.2207   -0.4130   -2.3318 C.ar      1 <0>        -0.0670
      3 C3         -4.0052    0.9154   -2.0159 C.ar      1 <0>        -0.1195
      4 C4         -2.8390    1.5406   -2.4158 C.ar      1 <0>        -0.0913
      5 C5         -1.8881    0.8372   -3.1313 C.ar      1 <0>        -0.1137
      6 C6         -2.1059   -0.4897   -3.4518 C.ar      1 <0>        -0.0860
      7 C7         -3.2702   -1.1161   -3.0481 C.ar      1 <0>        -0.1176
      8 C8         -0.6166    1.5187   -3.5672 C.3       1 <0>         0.1838
      9 H1         -0.6490    2.5686   -3.2762 H         1 <0>         0.1183
     10 C9          0.5627    0.8509   -2.9083 C.2       1 <0>         0.5142
     11 O1          1.4290    0.3420   -3.5876 O.2       1 <0>        -0.5218
     12 N1          0.6547    0.8191   -1.5641 N.am      1 <0>        -0.7173
     13 C10         1.8012    0.1699   -0.9235 C.3       1 <0>         0.1254
     14 C11         1.6623    0.2737    0.5967 C.3       1 <0>         0.0647
     15 H2          0.7354   -0.2019    0.9173 H         1 <0>         0.0761
     16 C12         2.8641   -0.4067    1.2803 C.3       1 <0>        -0.1495
     17 C13         3.5018    0.7171    2.1330 C.3       1 <0>        -0.1560
     18 C14         2.3290    1.7200    2.2778 C.3       1 <0>         0.0462
     19 O2          1.6697    1.6548    0.9950 O.3       1 <0>        -0.3705
     20 N2         -0.4836    1.4193   -5.0228 N.am      1 <0>        -0.5512
     21 C15        -1.3824    0.6360   -5.7557 C.ar      1 <0>         0.1121
     22 C16        -1.0056   -0.6256   -6.1971 C.ar      1 <0>        -0.0836
     23 C17        -1.8957   -1.3988   -6.9165 C.ar      1 <0>        -0.1434
     24 C18        -3.1595   -0.9127   -7.2065 C.ar      1 <0>         0.1158
     25 C19        -3.5356    0.3470   -6.7714 C.ar      1 <0>        -0.1411
     26 C20        -2.6503    1.1215   -6.0476 C.ar      1 <0>        -0.0688
     27 F1         -4.0270   -1.6687   -7.9144 F         1 <0>        -0.1325
     28 C21         0.5043    2.0823   -5.6561 C.2       1 <0>         0.6409
     29 O3          1.2250    2.8404   -5.0335 O.2       1 <0>        -0.5206
     30 C22         0.7106    1.8906   -7.0927 C.2       1 <0>        -0.3871
     31 C23         1.7147    2.4000   -7.9183 C.2       1 <0>         0.2765
     32 C24         1.5744    1.9910   -9.2445 C.2       1 <0>        -0.0363
     33 N3          0.5693    1.2103   -9.5740 N.2       1 <0>        -0.4520
     34 S1         -0.2474    0.9389   -8.2536 S.3       1 <0>         0.4589
     35 C25         2.5433    2.4293  -10.2658 C.2       1 <0>         0.6016
     36 O4          3.4708    3.1512   -9.9538 O.2       1 <0>        -0.5419
     37 N4          2.4009    2.0299  -11.5451 N.am      1 <0>        -0.8309
     38 N5          2.7393    3.2225   -7.4691 N.pl3     1 <0>        -0.8048
     39 H3         -6.2514   -0.9768   -2.6676 H         1 <0>         0.0737
     40 H4         -5.2984   -2.1554   -1.7344 H         1 <0>         0.0678
     41 H5         -5.8446   -0.6453   -0.9668 H         1 <0>         0.0684
     42 H6         -4.7478    1.4647   -1.4563 H         1 <0>         0.1265
     43 H7         -2.6706    2.5784   -2.1690 H         1 <0>         0.1279
     44 H8         -1.3649   -1.0380   -4.0145 H         1 <0>         0.1255
     45 H9         -3.4385   -2.1540   -3.2946 H         1 <0>         0.1237
     46 H10        -0.0381    1.2261   -1.0207 H         1 <0>         0.4047
     47 H11         1.8335   -0.8801   -1.2145 H         1 <0>         0.0798
     48 H12         2.7208    0.6628   -1.2388 H         1 <0>         0.0758
     49 H13         2.5278   -1.2248    1.9173 H         1 <0>         0.0811
     50 H14         3.5724   -0.7687    0.5350 H         1 <0>         0.0829
     51 H15         3.8120    0.3381    3.1068 H         1 <0>         0.0826
     52 H16         4.3421    1.1733    1.6096 H         1 <0>         0.0791
     53 H17         1.6526    1.4074    3.0733 H         1 <0>         0.0623
     54 H18         2.7049    2.7253    2.4682 H         1 <0>         0.0949
     55 H19        -0.0185   -1.0034   -5.9750 H         1 <0>         0.1456
     56 H20        -1.6045   -2.3816   -7.2565 H         1 <0>         0.1467
     57 H21        -4.5217    0.7242   -6.9986 H         1 <0>         0.1443
     58 H22        -2.9440    2.1039   -5.7084 H         1 <0>         0.1399
     59 H23         1.6610    1.4541  -11.7939 H         1 <0>         0.4115
     60 H24         3.0383    2.3183  -12.2170 H         1 <0>         0.4094
     61 H25         2.7847    3.4736   -6.5333 H         1 <0>         0.4166
     62 H26         3.4096    3.5460   -8.0911 H         1 <0>         0.4189
@<TRIPOS>BOND
     1    1    2 1
     2    1   39 1
     3    1   40 1
     4    1   41 1
     5    2    7 ar
     6    2    3 ar
     7    3    4 ar
     8    3   42 1
     9    4    5 ar
    10    4   43 1
    11    5    6 ar
    12    5    8 1
    13    6    7 ar
    14    6   44 1
    15    7   45 1
    16    8    9 1
    17    8   10 1
    18    8   20 1
    19   10   11 2
    20   10   12 am
    21   12   13 1
    22   12   46 1
    23   13   14 1
    24   13   47 1
    25   13   48 1
    26   14   15 1
    27   14   19 1
    28   14   16 1
    29   16   17 1
    30   16   49 1
    31   16   50 1
    32   17   18 1
    33   17   51 1
    34   17   52 1
    35   18   19 1
    36   18   53 1
    37   18   54 1
    38   20   21 1
    39   20   28 am
    40   21   26 ar
    41   21   22 ar
    42   22   23 ar
    43   22   55 1
    44   23   24 ar
    45   23   56 1
    46   24   25 ar
    47   24   27 1
    48   25   26 ar
    49   25   57 1
    50   26   58 1
    51   28   29 2
    52   28   30 1
    53   30   34 1
    54   30   31 2
    55   31   32 1
    56   31   38 1
    57   32   33 2
    58   32   35 1
    59   33   34 1
    60   35   36 2
    61   35   37 am
    62   37   59 1
    63   37   60 1
    64   38   61 1
    65   38   62 1
@<TRIPOS>MOLECULE
ZINC26477898
   61    64     0     0     0
SMALL
USER_CHARGES
(4R,5S,6S)-6-(1-hydroxyethyl)-4-methyl-3-[(3S,5S)-5-[[3-(methylcarbamoyl)-2-pyridyl]sulfanylmethyl]pyrrolidin-3-yl]sulfanyl-7-oxo-1-azabicyclo[3.2.0]hept-2-ene-2-carboxylic acid
@<TRIPOS>ATOM
      1 C1          8.7606   -7.0129   -0.8977 C.3       1 <0>        -0.1490
      2 C2          7.6942   -6.6043   -1.9160 C.3       1 <0>        -0.0615
      3 H1          6.7341   -6.5780   -1.3798 H         1 <0>         0.0860
      4 C3          7.6895   -7.5762   -3.1077 C.3       1 <0>         0.0693
      5 H2          6.7373   -8.1238   -3.0494 H         1 <0>         0.1381
      6 C4          8.9603   -8.4106   -3.2482 C.3       1 <0>        -0.1580
      7 H3          9.7039   -8.5541   -2.4504 H         1 <0>         0.1517
      8 C5          9.1737   -7.5224   -4.4447 C.2       1 <0>         0.5149
      9 O1         10.0415   -7.5025   -5.2924 O.2       1 <0>        -0.4275
     10 N1          8.0792   -6.7561   -4.2609 N.am      1 <0>        -0.4641
     11 C6          8.2229   -5.4210   -3.8488 C.2       1 <0>         0.1376
     12 C7          8.0320   -5.2621   -2.5241 C.2       1 <0>        -0.2267
     13 S1          8.1495   -3.7388   -1.6465 S.3       1 <0>         0.0584
     14 C8          6.4344   -3.5599   -1.0964 C.3       1 <0>        -0.1400
     15 H4          6.0728   -4.4152   -0.5068 H         1 <0>         0.1071
     16 C9          6.2437   -2.2513   -0.2853 C.3       1 <0>        -0.1110
     17 C10         4.7499   -1.9263   -0.4960 C.3       1 <0>         0.0665
     18 H5          4.1260   -2.2805    0.3379 H         1 <0>         0.1426
     19 N2          4.3233   -2.6125   -1.7293 N.4       1 <0>        -0.5401
     20 C11         5.4876   -3.3233   -2.2993 C.3       1 <0>        -0.0066
     21 C12         4.5625   -0.4156   -0.6494 C.3       1 <0>        -0.1915
     22 S2          2.7969   -0.0359   -0.7710 S.3       1 <0>         0.0326
     23 C13         2.8715    1.7169   -0.9349 C.ar      1 <0>         0.1535
     24 C14         1.6836    2.4587   -1.0632 C.ar      1 <0>        -0.1745
     25 C15         1.7689    3.8490   -1.1973 C.ar      1 <0>        -0.0233
     26 C16         3.0225    4.4350   -1.1869 C.ar      1 <0>        -0.1757
     27 C17         4.1463    3.6385   -1.0565 C.ar      1 <0>         0.1486
     28 N3          4.0462    2.3293   -0.9362 N.ar      1 <0>        -0.4885
     29 C18         0.3734    1.7838   -1.0625 C.2       1 <0>         0.5591
     30 O2          0.3124    0.5744   -0.9503 O.2       1 <0>        -0.5181
     31 N4         -0.7570    2.5063   -1.1918 N.am      1 <0>        -0.7348
     32 C19        -2.0590    1.8349   -1.1971 C.3       1 <0>         0.0866
     33 C20         8.5380   -4.3586   -4.7284 C.2       1 <0>         0.4741
     34 O3          8.7900   -4.5900   -5.8966 O.co2     1 <0>        -0.5951
     35 O4          8.5592   -3.0882   -4.2721 O.co2     1 <0>        -0.7106
     36 C21         8.7154   -9.8818   -3.5894 C.3       1 <0>         0.1233
     37 H6          8.1266   -9.9844   -4.5129 H         1 <0>         0.0539
     38 C22        10.0566  -10.6091   -3.7030 C.3       1 <0>        -0.1897
     39 O5          7.9318  -10.4858   -2.5583 O.3       1 <0>        -0.5971
     40 H7          8.4996   -7.9902   -0.4656 H         1 <0>         0.0670
     41 H8          8.8110   -6.2599   -0.0975 H         1 <0>         0.0662
     42 H9          9.7378   -7.0823   -1.3980 H         1 <0>         0.0572
     43 H10         6.4914   -2.4350    0.7706 H         1 <0>         0.1176
     44 H11         6.9068   -1.4709   -0.6871 H         1 <0>         0.1134
     45 H12         3.5250   -3.3310   -1.4917 H         1 <0>         0.4481
     46 H13         6.0037   -2.7172   -3.0584 H         1 <0>         0.1580
     47 H14         5.2006   -4.2913   -2.7360 H         1 <0>         0.1320
     48 H15         4.9885    0.0974    0.2255 H         1 <0>         0.1333
     49 H16         5.0748   -0.0732   -1.5606 H         1 <0>         0.1173
     50 H17         0.8780    4.4505   -1.3021 H         1 <0>         0.1461
     51 H18         3.1231    5.5059   -1.2839 H         1 <0>         0.1510
     52 H19         5.1238    4.0977   -1.0528 H         1 <0>         0.1720
     53 H20        -0.7019    3.6002   -1.2934 H         1 <0>         0.4234
     54 H21        -2.8570    2.5833   -1.3112 H         1 <0>         0.0813
     55 H22        -2.1964    1.2939   -0.2492 H         1 <0>         0.0635
     56 H23        -2.1012    1.1233   -2.0349 H         1 <0>         0.0635
     57 H24         9.8805  -11.6668   -3.9483 H         1 <0>         0.0652
     58 H25        10.5938  -10.5392   -2.7456 H         1 <0>         0.0670
     59 H26        10.6598  -10.1441   -4.4967 H         1 <0>         0.0742
     60 H27         7.6531  -11.5475   -2.6298 H         1 <0>         0.4120
     61 H28         3.9470   -1.8714   -2.4499 H         1 <0>         0.4500
@<TRIPOS>BOND
     1    1    2 1
     2    1   40 1
     3    1   41 1
     4    1   42 1
     5    2    3 1
     6    2   12 1
     7    2    4 1
     8    4    5 1
     9    4   10 1
    10    4    6 1
    11    6    7 1
    12    6    8 1
    13    6   36 1
    14    8    9 2
    15    8   10 am
    16   10   11 1
    17   11   12 2
    18   11   33 1
    19   12   13 1
    20   13   14 1
    21   14   15 1
    22   14   20 1
    23   14   16 1
    24   16   17 1
    25   16   43 1
    26   16   44 1
    27   17   18 1
    28   17   19 1
    29   17   21 1
    30   19   20 1
    31   19   45 1
    32   19   61 1
    33   20   46 1
    34   20   47 1
    35   21   22 1
    36   21   48 1
    37   21   49 1
    38   22   23 1
    39   23   28 ar
    40   23   24 ar
    41   24   25 ar
    42   24   29 1
    43   25   26 ar
    44   25   50 1
    45   26   27 ar
    46   26   51 1
    47   27   28 ar
    48   27   52 1
    49   29   30 2
    50   29   31 am
    51   31   32 1
    52   31   53 1
    53   32   54 1
    54   32   55 1
    55   32   56 1
    56   33   34 2
    57   33   35 1
    58   36   37 1
    59   36   38 1
    60   36   39 1
    61   38   57 1
    62   38   58 1
    63   38   59 1
    64   39   60 1
@<TRIPOS>MOLECULE
ZINC12715057
   59    62     0     0     0
SMALL
USER_CHARGES

@<TRIPOS>ATOM
      1 C1          0.4947    2.0465   -0.0115 C.3       1 <0>        -0.0759
      2 C2          0.4348    0.5445    0.0952 C.2       1 <0>         0.0073
      3 C3         -0.6836   -0.1907    0.2296 C.2       1 <0>        -0.2126
      4 C4         -0.2793   -1.5441    0.2911 C.2       1 <0>        -0.1730
      5 C5          1.0620   -1.5550    0.1905 C.2       1 <0>        -0.0411
      6 O1          1.4886   -0.2876    0.0662 O.3       1 <0>        -0.1551
      7 C6          1.9371   -2.7818    0.2085 C.3       1 <0>         0.2181
      8 H1          1.3389   -3.6585   -0.0394 H         1 <0>         0.1568
      9 C7          2.5340   -2.9529    1.5817 C.2       1 <0>         0.5125
     10 O2          3.7384   -2.9482    1.7242 O.2       1 <0>        -0.5184
     11 N1          1.7294   -3.1112    2.6513 N.am      1 <0>        -0.7134
     12 C8          2.3097   -3.2775    3.9861 C.3       1 <0>         0.1246
     13 C9          1.1874   -3.4365    5.0139 C.3       1 <0>         0.0664
     14 H2          0.5728   -4.3034    4.7710 H         1 <0>         0.0800
     15 C10         1.7793   -3.5791    6.4387 C.3       1 <0>        -0.1480
     16 C11         0.5891   -3.0814    7.3034 C.3       1 <0>        -0.1558
     17 C12        -0.0346   -1.9910    6.4059 C.3       1 <0>         0.0504
     18 O3          0.3798   -2.2494    5.0579 O.3       1 <0>        -0.3762
     19 N2          3.0117   -2.6295   -0.7755 N.am      1 <0>        -0.5418
     20 C13         3.9163   -1.5672   -0.6653 C.ar      1 <0>         0.0596
     21 C14         5.0873   -1.7233    0.0639 C.ar      1 <0>        -0.0366
     22 C15         5.9785   -0.6732    0.1706 C.ar      1 <0>        -0.1390
     23 C16         5.7063    0.5334   -0.4477 C.ar      1 <0>        -0.0681
     24 C17         4.5413    0.6940   -1.1751 C.ar      1 <0>        -0.1663
     25 C18         3.6470   -0.3546   -1.2906 C.ar      1 <0>         0.1390
     26 F1          2.5112   -0.1995   -2.0056 F         1 <0>        -0.1243
     27 C19         3.1292   -3.5125   -1.7870 C.2       1 <0>         0.6370
     28 O4          2.3424   -4.4364   -1.8829 O.2       1 <0>        -0.5285
     29 C20         4.2030   -3.3604   -2.7704 C.2       1 <0>        -0.3725
     30 C21         4.4995   -4.1468   -3.8846 C.2       1 <0>         0.2741
     31 C22         5.6065   -3.6977   -4.6019 C.2       1 <0>        -0.0257
     32 N3          6.2512   -2.6246   -4.1945 N.2       1 <0>        -0.4207
     33 S1          5.4755   -2.1174   -2.8690 S.3       1 <0>         0.4130
     34 C23         6.0527   -4.4191   -5.8078 C.2       1 <0>         0.6015
     35 O5          5.3981   -5.3500   -6.2365 O.2       1 <0>        -0.5394
     36 N4          7.1861   -4.0469   -6.4350 N.am      1 <0>        -0.8293
     37 N5          3.7633   -5.2681   -4.2432 N.pl3     1 <0>        -0.8058
     38 H3          1.5327    2.3622   -0.1164 H         1 <0>         0.0747
     39 H4         -0.0739    2.3718   -0.8826 H         1 <0>         0.0871
     40 H5          0.0686    2.4918    0.8876 H         1 <0>         0.0870
     41 H6         -1.6961    0.1816    0.2814 H         1 <0>         0.1504
     42 H7         -0.9237   -2.4040    0.3986 H         1 <0>         0.1518
     43 H8          0.7661   -3.1150    2.5372 H         1 <0>         0.4068
     44 H9          2.9426   -4.1648    3.9992 H         1 <0>         0.0845
     45 H10         2.9079   -2.4008    4.2341 H         1 <0>         0.0769
     46 H11         2.0195   -4.6185    6.6621 H         1 <0>         0.0885
     47 H12         2.6526   -2.9396    6.5671 H         1 <0>         0.0839
     48 H13        -0.1218   -3.8874    7.4855 H         1 <0>         0.0789
     49 H14         0.9431   -2.6554    8.2422 H         1 <0>         0.0853
     50 H15        -1.1217   -2.0350    6.4719 H         1 <0>         0.0705
     51 H16         0.3166   -1.0081    6.7199 H         1 <0>         0.0707
     52 H17         5.3012   -2.6649    0.5476 H         1 <0>         0.1566
     53 H18         6.8893   -0.7947    0.7382 H         1 <0>         0.1366
     54 H19         6.4050    1.3524   -0.3619 H         1 <0>         0.1376
     55 H20         4.3315    1.6377   -1.6564 H         1 <0>         0.1407
     56 H21         7.7082   -3.3044   -6.0930 H         1 <0>         0.4121
     57 H22         7.4796   -4.5216   -7.2284 H         1 <0>         0.4105
     58 H23         3.0488   -5.5836   -3.6680 H         1 <0>         0.4162
     59 H24         3.9634   -5.7360   -5.0690 H         1 <0>         0.4197
@<TRIPOS>BOND
     1    1    2 1
     2    1   38 1
     3    1   39 1
     4    1   40 1
     5    2    6 1
     6    2    3 2
     7    3    4 1
     8    3   41 1
     9    4    5 2
    10    4   42 1
    11    5    6 1
    12    5    7 1
    13    7    8 1
    14    7    9 1
    15    7   19 1
    16    9   10 2
    17    9   11 am
    18   11   12 1
    19   11   43 1
    20   12   13 1
    21   12   44 1
    22   12   45 1
    23   13   14 1
    24   13   18 1
    25   13   15 1
    26   15   16 1
    27   15   46 1
    28   15   47 1
    29   16   17 1
    30   16   48 1
    31   16   49 1
    32   17   18 1
    33   17   50 1
    34   17   51 1
    35   19   20 1
    36   19   27 am
    37   20   25 ar
    38   20   21 ar
    39   21   22 ar
    40   21   52 1
    41   22   23 ar
    42   22   53 1
    43   23   24 ar
    44   23   54 1
    45   24   25 ar
    46   24   55 1
    47   25   26 1
    48   27   28 2
    49   27   29 1
    50   29   33 1
    51   29   30 2
    52   30   31 1
    53   30   37 1
    54   31   32 2
    55   31   34 1
    56   32   33 1
    57   34   35 2
    58   34   36 am
    59   36   56 1
    60   36   57 1
    61   37   58 1
    62   37   59 1
@<TRIPOS>MOLECULE
ZINC49088971
   62    67     0     0     0
SMALL
USER_CHARGES

@<TRIPOS>ATOM
      1 C1         -0.0167    1.3776    0.0096 C.ar      1 <0>        -0.1699
      2 C2          1.1849    2.0698    0.0019 C.ar      1 <0>        -0.0693
      3 C3          2.3651    1.3426   -0.0133 C.ar      1 <0>        -0.1371
      4 C4          2.3054   -0.0383   -0.0202 C.ar      1 <0>         0.1063
      5 N1          1.1443   -0.6632   -0.0129 N.ar      1 <0>        -0.4827
      6 C5          0.0021   -0.0041    0.0020 C.ar      1 <0>         0.0977
      7 C6          3.6964    2.0488   -0.0227 C.3       1 <0>        -0.0872
      8 C7          4.1610    2.2805    1.4165 C.3       1 <0>         0.1244
      9 N2          5.4551    2.9670    1.4073 N.am      1 <0>        -0.7291
     10 C8          6.0618    3.2769    2.5703 C.2       1 <0>         0.5633
     11 O1          5.5350    2.9868    3.6269 O.2       1 <0>        -0.5346
     12 C9          7.3657    3.9686    2.5610 C.ar      1 <0>        -0.1670
     13 C10         7.9715    4.3089    1.3484 C.ar      1 <0>        -0.0514
     14 C11         9.1872    4.9513    1.3483 C.ar      1 <0>        -0.1500
     15 C12         9.8192    5.2666    2.5507 C.ar      1 <0>         0.1553
     16 C13         9.2191    4.9336    3.7557 C.ar      1 <0>        -0.1648
     17 C14         7.9969    4.2911    3.7633 C.ar      1 <0>        -0.0167
     18 C15         9.8678    5.2690    5.0751 C.3       1 <0>        -0.0694
     19 C16        11.3536    5.5659    4.8583 C.3       1 <0>        -0.0480
     20 H1         11.8827    4.6421    4.6246 H         1 <0>         0.1275
     21 C17        11.4827    6.5466    3.6858 C.3       1 <0>         0.0645
     22 O2         11.0205    5.8960    2.5015 O.3       1 <0>        -0.2989
     23 C18        11.9353    6.1830    6.1041 C.2       1 <0>         0.2980
     24 N3         11.8868    7.5062    6.4132 N.pl3     1 <0>        -0.5941
     25 H2         11.4793    8.2068    5.8802 H         1 <0>         0.4236
     26 C19        12.5254    7.6675    7.6275 C.ar      1 <0>         0.0409
     27 C20        12.7904    8.7591    8.4385 C.ar      1 <0>        -0.0539
     28 C21        13.4762    8.5757    9.6346 C.ar      1 <0>        -0.0443
     29 C22        13.8956    7.2962   10.0158 C.ar      1 <0>        -0.0961
     30 C23        13.6382    6.2180    9.2227 C.ar      1 <0>        -0.0657
     31 C24        12.9495    6.3842    8.0161 C.ar      1 <0>         0.0670
     32 N4         12.5522    5.5260    7.0432 N.2       1 <0>        -0.4788
     33 C25        13.7640    9.7383   10.5073 C.ar      1 <0>         0.2660
     34 C26        14.4575    9.5691   11.7096 C.ar      1 <0>        -0.2796
     35 C27        14.7033   10.6834   12.4907 C.ar      1 <0>         0.1978
     36 N5         14.2781   11.8685   12.0809 N.ar      1 <0>        -0.5753
     37 C28        13.6229   11.9999   10.9366 C.ar      1 <0>         0.5716
     38 N6         13.3709   10.9609   10.1561 N.ar      1 <0>        -0.5709
     39 N7         13.1957   13.2569   10.5448 N.pl3     1 <0>        -0.8219
     40 H3         -0.9552    1.9117    0.0259 H         1 <0>         0.1370
     41 H4          1.2009    3.1496    0.0072 H         1 <0>         0.1350
     42 H5          3.2203   -0.6121   -0.0320 H         1 <0>         0.1555
     43 H6         -0.9294   -0.5505    0.0083 H         1 <0>         0.1570
     44 H7          4.4293    1.4355   -0.5468 H         1 <0>         0.0855
     45 H8          3.5953    3.0079   -0.5308 H         1 <0>         0.0833
     46 H9          3.4280    2.8939    1.9406 H         1 <0>         0.0714
     47 H10         4.2620    1.3215    1.9245 H         1 <0>         0.0731
     48 H11         5.8754    3.1986    0.5643 H         1 <0>         0.4006
     49 H12         7.4864    4.0676    0.4142 H         1 <0>         0.1340
     50 H13         9.6558    5.2130    0.4111 H         1 <0>         0.1409
     51 H14         7.5299    4.0337    4.7024 H         1 <0>         0.1414
     52 H15         9.3820    6.1445    5.5059 H         1 <0>         0.0832
     53 H16         9.7623    4.4245    5.7562 H         1 <0>         0.0996
     54 H17        10.8764    7.4316    3.8789 H         1 <0>         0.0696
     55 H18        12.5263    6.8358    3.5623 H         1 <0>         0.1190
     56 H19        12.4668    9.7464    8.1436 H         1 <0>         0.1380
     57 H20        14.4279    7.1621   10.9459 H         1 <0>         0.1394
     58 H21        13.9661    5.2347    9.5259 H         1 <0>         0.1385
     59 H22        14.7932    8.5909   12.0210 H         1 <0>         0.1493
     60 H23        15.2360   10.5880   13.4253 H         1 <0>         0.1716
     61 H24        13.3770   14.0274   11.1055 H         1 <0>         0.4158
     62 H25        12.7150   13.3672    9.7096 H         1 <0>         0.4138
@<TRIPOS>BOND
     1    1    6 ar
     2    1    2 ar
     3    1   40 1
     4    2    3 ar
     5    2   41 1
     6    3    4 ar
     7    3    7 1
     8    4    5 ar
     9    4   42 1
    10    5    6 ar
    11    6   43 1
    12    7    8 1
    13    7   44 1
    14    7   45 1
    15    8    9 1
    16    8   46 1
    17    8   47 1
    18    9   10 am
    19    9   48 1
    20   10   11 2
    21   10   12 1
    22   12   17 ar
    23   12   13 ar
    24   13   14 ar
    25   13   49 1
    26   14   15 ar
    27   14   50 1
    28   15   22 1
    29   15   16 ar
    30   16   17 ar
    31   16   18 1
    32   17   51 1
    33   18   19 1
    34   18   52 1
    35   18   53 1
    36   19   20 1
    37   19   21 1
    38   19   23 1
    39   21   22 1
    40   21   54 1
    41   21   55 1
    42   23   32 2
    43   23   24 1
    44   24   25 1
    45   24   26 1
    46   26   31 ar
    47   26   27 ar
    48   27   28 ar
    49   27   56 1
    50   28   29 ar
    51   28   33 1
    52   29   30 ar
    53   29   57 1
    54   30   31 ar
    55   30   58 1
    56   31   32 1
    57   33   38 ar
    58   33   34 ar
    59   34   35 ar
    60   34   59 1
    61   35   36 ar
    62   35   60 1
    63   36   37 ar
    64   37   38 ar
    65   37   39 1
    66   39   61 1
    67   39   62 1
@<TRIPOS>MOLECULE
ZINC06280928
   45    47     0     0     0
SMALL
USER_CHARGES
N-[(3-bromo-4-hydroxy-5-nitro-phenyl)methyleneamino]-4-(2,5-dimethylpyrrol-1-yl)benzamide
@<TRIPOS>ATOM
      1 C1         -1.2490    2.2292    0.0203 C.3       1 <0>        -0.0857
      2 C2         -0.0165    1.3621    0.0095 C.2       1 <0>         0.0201
      3 C3          1.2584    1.8005   -0.0003 C.2       1 <0>        -0.1910
      4 C4          2.0961    0.6666   -0.0144 C.2       1 <0>        -0.1912
      5 C5          1.3025   -0.4232   -0.0127 C.2       1 <0>         0.0206
      6 N1          0.0021   -0.0041    0.0020 N.pl3     1 <0>        -0.4068
      7 C6         -1.1224   -0.8348    0.0087 C.ar      1 <0>         0.1421
      8 C7         -1.9690   -0.8474    1.1119 C.ar      1 <0>        -0.1159
      9 C8         -3.0806   -1.6601    1.1197 C.ar      1 <0>        -0.0744
     10 C9         -3.3509   -2.4818    0.0222 C.ar      1 <0>        -0.1181
     11 C10        -2.4948   -2.4707   -1.0823 C.ar      1 <0>        -0.0429
     12 C11        -1.3884   -1.6508   -1.0855 C.ar      1 <0>        -0.1160
     13 C12        -4.5375   -3.3595    0.0296 C.2       1 <0>         0.5732
     14 O1         -4.7711   -4.0744   -0.9262 O.2       1 <0>        -0.4981
     15 N2         -5.3621   -3.3689    1.0957 N.am      1 <0>        -0.5799
     16 N3         -6.4884   -4.2021    1.1028 N.2       1 <0>        -0.2646
     17 C13        -7.2826   -4.2111    2.1295 C.2       1 <0>         0.1617
     18 C14        -8.4677   -5.0878    2.1370 C.ar      1 <0>        -0.1966
     19 C15        -9.3209   -5.1034    3.2437 C.ar      1 <0>         0.0464
     20 C16       -10.4303   -5.9208    3.2447 C.ar      1 <0>        -0.1876
     21 C17       -10.6957   -6.7365    2.1524 C.ar      1 <0>         0.3327
     22 C18        -9.8476   -6.7285    1.0517 C.ar      1 <0>        -0.2100
     23 C19        -8.7380   -5.9098    1.0399 C.ar      1 <0>         0.0333
     24 Br1       -10.2157   -7.8414   -0.4321 Br        1 <0>        -0.0572
     25 N4        -11.3373   -5.9340    4.4144 N.pl3     1 <0>         0.0650
     26 O2        -11.1056   -5.2191    5.3729 O.2       1 <0>        -0.2538
     27 O3        -12.3154   -6.6599    4.4184 O.3       1 <0>        -0.1524
     28 C20         1.7690   -1.8562   -0.0256 C.3       1 <0>        -0.0861
     29 H1         -1.5411    2.4326    1.0505 H         1 <0>         0.0708
     30 H2         -1.0366    3.1689   -0.4895 H         1 <0>         0.0807
     31 H3         -2.0608    1.7131   -0.4924 H         1 <0>         0.0632
     32 H4          1.5793    2.8317    0.0016 H         1 <0>         0.1382
     33 H5          3.1760    0.6703   -0.0252 H         1 <0>         0.1382
     34 H6         -1.7568   -0.2156    1.9617 H         1 <0>         0.1363
     35 H7         -3.7401   -1.6660    1.9750 H         1 <0>         0.1352
     36 H8         -2.7004   -3.1047   -1.9321 H         1 <0>         0.1493
     37 H9         -0.7263   -1.6417   -1.9387 H         1 <0>         0.1376
     38 H10        -5.1757   -2.7988    1.8580 H         1 <0>         0.3784
     39 H11        -7.0751   -3.5763    2.9783 H         1 <0>         0.1139
     40 H12        -9.1132   -4.4728    4.0956 H         1 <0>         0.1361
     41 H13        -8.0790   -5.9043    0.1844 H         1 <0>         0.1363
     42 H14         1.8718   -2.1955   -1.0563 H         1 <0>         0.0714
     43 H15         2.7325   -1.9291    0.4789 H         1 <0>         0.0806
     44 H16         1.0400   -2.4802    0.4914 H         1 <0>         0.0632
     45 O4        -11.7881   -7.5443    2.1598 O.3       1 <0>        -0.5963
@<TRIPOS>BOND
     1    1    2 1
     2    1   29 1
     3    1   30 1
     4    1   31 1
     5    2    6 1
     6    2    3 2
     7    3    4 1
     8    3   32 1
     9    4    5 2
    10    4   33 1
    11    5    6 1
    12    5   28 1
    13    6    7 1
    14    7   12 ar
    15    7    8 ar
    16    8    9 ar
    17    8   34 1
    18    9   10 ar
    19    9   35 1
    20   10   11 ar
    21   10   13 1
    22   11   12 ar
    23   11   36 1
    24   12   37 1
    25   13   14 2
    26   13   15 am
    27   15   16 1
    28   15   38 1
    29   16   17 2
    30   17   18 1
    31   17   39 1
    32   18   23 ar
    33   18   19 ar
    34   19   20 ar
    35   19   40 1
    36   20   21 ar
    37   20   25 1
    38   21   22 ar
    39   21   45 1
    40   22   23 ar
    41   22   24 1
    42   23   41 1
    43   25   26 2
    44   25   27 1
    45   28   42 1
    46   28   43 1
    47   28   44 1
@<TRIPOS>MOLECULE
ZINC32818816
   47    50     0     0     0
SMALL
USER_CHARGES
(5S,6S)-5-(4-bromobenzoyl)-6-(4-nitrophenyl)-3-phenyl-hexahydropyrimidine-2,4-dione
@<TRIPOS>ATOM
      1 C1         -2.3311    8.6975    6.1604 C.ar      1 <0>        -0.1218
      2 C2         -1.7171    7.5324    5.7391 C.ar      1 <0>        -0.1133
      3 C3         -1.3970    7.3618    4.4063 C.ar      1 <0>        -0.0994
      4 C4         -1.6924    8.3615    3.4895 C.ar      1 <0>         0.1557
      5 C5         -2.3041    9.5323    3.9163 C.ar      1 <0>        -0.1087
      6 C6         -2.6265    9.6950    5.2495 C.ar      1 <0>        -0.1130
      7 N1         -1.3683    8.1914    2.1360 N.am      1 <0>        -0.5532
      8 C7         -2.2564    7.6085    1.3099 C.2       1 <0>         0.5551
      9 O1         -3.3576    7.3077    1.7182 O.3       1 <0>        -0.5232
     10 C8         -1.8814    7.3304   -0.1241 C.2       1 <0>        -0.5452
     11 C9         -0.9547    8.4401   -0.6258 C.3       1 <0>         0.2193
     12 H1         -0.4557    8.1453   -1.5607 H         1 <0>         0.0869
     13 N2          0.0892    8.6929    0.3692 N.am      1 <0>        -0.7317
     14 C10        -0.1758    8.6128    1.6832 C.2       1 <0>         0.7155
     15 O2          0.6837    8.9296    2.4820 O.2       1 <0>        -0.5938
     16 C11        -1.7528    9.6992   -0.8469 C.ar      1 <0>         0.0153
     17 C12        -2.0866   10.5034    0.2268 C.ar      1 <0>        -0.1207
     18 C13        -2.8154   11.6603    0.0236 C.ar      1 <0>        -0.0504
     19 C14        -3.2177   12.0086   -1.2522 C.ar      1 <0>        -0.0634
     20 C15        -2.8881   11.2019   -2.3253 C.ar      1 <0>        -0.0518
     21 C16        -2.1560   10.0470   -2.1226 C.ar      1 <0>        -0.1077
     22 N3         -4.0020   13.2450   -1.4693 N.pl3     1 <0>         0.0372
     23 O3         -4.3569   13.5516   -2.5934 O.2       1 <0>        -0.1726
     24 O4         -4.2925   13.9558   -0.5238 O.3       1 <0>        -0.1757
     25 C17        -1.1715    6.0039   -0.2107 C.2       1 <0>         0.4279
     26 O5          0.0344    5.9528   -0.0933 O.2       1 <0>        -0.5094
     27 C18        -1.9413    4.7711   -0.4378 C.ar      1 <0>        -0.1212
     28 C19        -1.2857    3.5380   -0.5189 C.ar      1 <0>        -0.0787
     29 C20        -2.0136    2.3871   -0.7314 C.ar      1 <0>        -0.1166
     30 C21        -3.3910    2.4493   -0.8646 C.ar      1 <0>        -0.0753
     31 C22        -4.0466    3.6674   -0.7908 C.ar      1 <0>        -0.1152
     32 C23        -3.3325    4.8261   -0.5734 C.ar      1 <0>        -0.0332
     33 Br1        -4.3806    0.8646   -1.1566 Br        1 <0>        -0.0673
     34 H2         -2.5801    8.8288    7.2031 H         1 <0>         0.1224
     35 H3         -1.4878    6.7549    6.4527 H         1 <0>         0.1236
     36 H4         -0.9178    6.4514    4.0777 H         1 <0>         0.1174
     37 H5         -2.5315   10.3134    3.2060 H         1 <0>         0.1169
     38 H6         -3.1062   10.6039    5.5815 H         1 <0>         0.1247
     39 H7          1.1075    8.9527    0.0442 H         1 <0>         0.4172
     40 H8         -1.7754   10.2294    1.2240 H         1 <0>         0.1318
     41 H9         -3.0732   12.2904    0.8620 H         1 <0>         0.1439
     42 H10        -3.2027   11.4738   -3.3220 H         1 <0>         0.1489
     43 H11        -1.8987    9.4165   -2.9609 H         1 <0>         0.1483
     44 H12        -0.2118    3.4880   -0.4155 H         1 <0>         0.1307
     45 H13        -1.5088    1.4344   -0.7945 H         1 <0>         0.1271
     46 H14        -5.1203    3.7088   -0.8997 H         1 <0>         0.1319
     47 H15        -3.8453    5.7746   -0.5120 H         1 <0>         0.1648
@<TRIPOS>BOND
     1    1    6 ar
     2    1    2 ar
     3    1   34 1
     4    2    3 ar
     5    2   35 1
     6    3    4 ar
     7    3   36 1
     8    4    5 ar
     9    4    7 1
    10    5    6 ar
    11    5   37 1
    12    6   38 1
    13    7   14 am
    14    7    8 1
    15    8    9 1
    16    8   10 2
    17   10   11 1
    18   10   25 1
    19   11   12 1
    20   11   13 1
    21   11   16 1
    22   13   14 am
    23   13   39 1
    24   14   15 2
    25   16   21 ar
    26   16   17 ar
    27   17   18 ar
    28   17   40 1
    29   18   19 ar
    30   18   41 1
    31   19   20 ar
    32   19   22 1
    33   20   21 ar
    34   20   42 1
    35   21   43 1
    36   22   23 2
    37   22   24 1
    38   25   26 2
    39   25   27 1
    40   27   32 ar
    41   27   28 ar
    42   28   29 ar
    43   28   44 1
    44   29   30 ar
    45   29   45 1
    46   30   31 ar
    47   30   33 1
    48   31   32 ar
    49   31   46 1
    50   32   47 1
@<TRIPOS>MOLECULE
ZINC09018017
   63    66     0     0     0
SMALL
USER_CHARGES

@<TRIPOS>ATOM
      1 C1         -0.0184    1.5028    0.0103 C.3       1 <0>        -0.1102
      2 C2          0.0021   -0.0041    0.0020 C.ar      1 <0>        -0.1168
      3 C3          0.0214   -0.6872   -1.2001 C.ar      1 <0>        -0.0922
      4 C4          0.0401   -2.0681   -1.2111 C.ar      1 <0>        -0.1541
      5 C5          0.0401   -2.7706   -0.0132 C.ar      1 <0>         0.1634
      6 C6          0.0211   -2.0816    1.1924 C.ar      1 <0>        -0.1548
      7 C7          0.0073   -0.7006    1.1966 C.ar      1 <0>        -0.0930
      8 N1          0.0586   -4.1697   -0.0209 N.am      1 <0>        -0.5598
      9 C8          0.1758   -5.0030    1.1816 C.3       1 <0>         0.0981
     10 C9          0.5878   -6.4028    0.6744 C.3       1 <0>        -0.0803
     11 H1          1.6721   -6.5143    0.6750 H         1 <0>         0.1085
     12 C10         0.0334   -6.3910   -0.7690 C.3       1 <0>        -0.1457
     13 C11        -0.0344   -4.9234   -1.1301 C.2       1 <0>         0.5196
     14 O1         -0.1529   -4.4899   -2.2566 O.2       1 <0>        -0.5117
     15 C12        -0.0734   -7.5032    1.5068 C.3       1 <0>        -0.1289
     16 C13         0.4449   -8.8475    1.0647 C.2       1 <0>         0.5186
     17 O2          1.2627   -8.9184    0.1718 O.2       1 <0>        -0.5187
     18 N2         -0.0003   -9.9709    1.6616 N.am      1 <0>        -0.6340
     19 C14         0.4791  -11.2140    1.2528 C.2       1 <0>         0.3363
     20 C15         1.3965  -11.4413    0.2741 C.2       1 <0>        -0.2830
     21 C16         1.5953  -12.8225    0.1841 C.2       1 <0>         0.0761
     22 N3          0.8325  -13.4105    1.0692 N.2       1 <0>        -0.2507
     23 N4          0.1195  -12.4250    1.7638 N.pl3     1 <0>        -0.3133
     24 C17        -0.7958  -12.6439    2.7921 C.ar      1 <0>         0.5721
     25 N5         -1.3995  -11.6066    3.3498 N.ar      1 <0>        -0.6441
     26 C18        -2.2765  -11.7809    4.3307 C.ar      1 <0>         0.4630
     27 O3         -2.8929  -10.7162    4.8988 O.3       1 <0>        -0.6927
     28 C19        -2.5547  -13.0755    4.7680 C.ar      1 <0>        -0.3323
     29 C20        -1.9026  -14.1311    4.1591 C.ar      1 <0>         0.2024
     30 N6         -1.0430  -13.8838    3.1822 N.ar      1 <0>        -0.5785
     31 C21        -2.1705  -15.5476    4.5980 C.3       1 <0>        -0.0146
     32 C22        -3.5324  -15.9977    4.0654 C.3       1 <0>        -0.1324
     33 C23        -1.0785  -16.4672    4.0478 C.3       1 <0>        -0.1203
     34 C24        -2.1726  -15.6161    6.1265 C.3       1 <0>        -0.1355
     35 C25         2.5305  -13.5168   -0.7722 C.3       1 <0>        -0.0656
     36 H2          1.0043    1.8800    0.0159 H         1 <0>         0.0671
     37 H3         -0.5340    1.8640   -0.8795 H         1 <0>         0.0640
     38 H4         -0.5402    1.8542    0.9004 H         1 <0>         0.0640
     39 H5          0.0214   -0.1403   -2.1314 H         1 <0>         0.1243
     40 H6          0.0545   -2.6011   -2.1504 H         1 <0>         0.1545
     41 H7          0.0206   -2.6251    2.1257 H         1 <0>         0.1265
     42 H8         -0.0034   -0.1641    2.1339 H         1 <0>         0.1249
     43 H9          0.9416   -4.6018    1.8453 H         1 <0>         0.0911
     44 H10        -0.7824   -5.0560    1.6985 H         1 <0>         0.0869
     45 H11         0.7081   -6.9212   -1.4411 H         1 <0>         0.1184
     46 H12        -0.9622   -6.8337   -0.7989 H         1 <0>         0.1087
     47 H13         0.1608   -7.3521    2.5605 H         1 <0>         0.1113
     48 H14        -1.1536   -7.4660    1.3657 H         1 <0>         0.1076
     49 H15        -0.6543   -9.9141    2.3757 H         1 <0>         0.4363
     50 H16         1.8843  -10.6883   -0.3271 H         1 <0>         0.1763
     51 H17        -3.2632  -13.2493    5.5644 H         1 <0>         0.1211
     52 H18        -3.5309  -15.9489    2.9765 H         1 <0>         0.0548
     53 H19        -3.7261  -17.0223    4.3829 H         1 <0>         0.0571
     54 H20        -4.3104  -15.3426    4.4574 H         1 <0>         0.0564
     55 H21        -0.1082  -16.1466    4.4272 H         1 <0>         0.0522
     56 H22        -1.2722  -17.4918    4.3653 H         1 <0>         0.0435
     57 H23        -1.0770  -16.4184    2.9589 H         1 <0>         0.0655
     58 H24        -2.9506  -14.9610    6.5185 H         1 <0>         0.0599
     59 H25        -2.3664  -16.6407    6.4440 H         1 <0>         0.0564
     60 H26        -1.2024  -15.2955    6.5059 H         1 <0>         0.0538
     61 H27         3.5120  -13.6205   -0.3097 H         1 <0>         0.0751
     62 H28         2.1364  -14.5041   -1.0133 H         1 <0>         0.0714
     63 H29         2.6194  -12.9281   -1.6852 H         1 <0>         0.0766
@<TRIPOS>BOND
     1    1    2 1
     2    1   36 1
     3    1   37 1
     4    1   38 1
     5    2    7 ar
     6    2    3 ar
     7    3    4 ar
     8    3   39 1
     9    4    5 ar
    10    4   40 1
    11    5    6 ar
    12    5    8 1
    13    6    7 ar
    14    6   41 1
    15    7   42 1
    16    8   13 am
    17    8    9 1
    18    9   10 1
    19    9   43 1
    20    9   44 1
    21   10   11 1
    22   10   12 1
    23   10   15 1
    24   12   13 1
    25   12   45 1
    26   12   46 1
    27   13   14 2
    28   15   16 1
    29   15   47 1
    30   15   48 1
    31   16   17 2
    32   16   18 am
    33   18   19 1
    34   18   49 1
    35   19   23 1
    36   19   20 2
    37   20   21 1
    38   20   50 1
    39   21   22 2
    40   21   35 1
    41   22   23 1
    42   23   24 1
    43   24   30 ar
    44   24   25 ar
    45   25   26 ar
    46   26   27 1
    47   26   28 ar
    48   28   29 ar
    49   28   51 1
    50   29   30 ar
    51   29   31 1
    52   31   32 1
    53   31   33 1
    54   31   34 1
    55   32   52 1
    56   32   53 1
    57   32   54 1
    58   33   55 1
    59   33   56 1
    60   33   57 1
    61   34   58 1
    62   34   59 1
    63   34   60 1
    64   35   61 1
    65   35   62 1
    66   35   63 1
@<TRIPOS>MOLECULE
ZINC41007310
   47    50     0     0     0
SMALL
USER_CHARGES

@<TRIPOS>ATOM
      1 C1         -0.0040    1.4724   -0.0169 C.3       1 <0>        -0.1019
      2 C2         -0.1513   -0.0273   -0.0108 C.ar      1 <0>         0.2110
      3 C3         -0.3412   -0.7183   -1.1972 C.ar      1 <0>        -0.3383
      4 C4         -0.4716   -2.0973   -1.1473 C.ar      1 <0>         0.1994
      5 N1         -0.4115   -2.7092    0.0239 N.ar      1 <0>        -0.5542
      6 C5         -0.2290   -2.0189    1.1400 C.ar      1 <0>         0.6023
      7 N2         -0.0956   -0.7007    1.1264 N.ar      1 <0>        -0.6230
      8 N3         -0.1714   -2.6912    2.3485 N.2       1 <0>        -1.0507
      9 S1          0.0560   -1.8478    3.7553 S.o2      1 <0>         2.6409
     10 O1          1.3620   -1.2916    3.6888 O.2       1 <0>        -1.0156
     11 O2         -1.1039   -1.0483    3.9415 O.2       1 <0>        -1.0168
     12 C6          0.0749   -3.0216    5.0692 C.ar      1 <0>        -0.6317
     13 C7         -1.1050   -3.3684    5.7015 C.ar      1 <0>        -0.0023
     14 C8         -1.0938   -4.2884    6.7314 C.ar      1 <0>        -0.1637
     15 C9          0.1044   -4.8655    7.1320 C.ar      1 <0>         0.1720
     16 C10         1.2878   -4.5150    6.4948 C.ar      1 <0>        -0.1434
     17 C11         1.2688   -3.5982    5.4621 C.ar      1 <0>        -0.0017
     18 N4          0.1194   -5.7970    8.1747 N.am      1 <0>        -0.6578
     19 C12         1.1799   -5.8634    9.0038 C.2       1 <0>         0.5989
     20 O3          2.0805   -5.0512    8.9058 O.2       1 <0>        -0.4848
     21 C13         1.2484   -6.9166   10.0260 C.2       1 <0>        -0.0215
     22 C14         2.2617   -7.0772   10.9163 C.2       1 <0>        -0.0986
     23 C15         1.9064   -8.2398   11.7291 C.ar      1 <0>        -0.1406
     24 C16         2.5182   -8.9079   12.7927 C.ar      1 <0>        -0.0248
     25 C17         1.9078   -9.9969   13.3495 C.ar      1 <0>        -0.1105
     26 C18         0.6846  -10.4421   12.8646 C.ar      1 <0>        -0.0575
     27 C19         0.0656   -9.7969   11.8162 C.ar      1 <0>        -0.0999
     28 C20         0.6672   -8.6869   11.2342 C.ar      1 <0>         0.0863
     29 O4          0.3115   -7.8670   10.2260 O.3       1 <0>        -0.1799
     30 Br1         2.7341  -10.9033   14.7888 Br        1 <0>        -0.0390
     31 C21        -0.6799   -2.8900   -2.4119 C.3       1 <0>        -0.0954
     32 H1          1.0484    1.7337   -0.1277 H         1 <0>         0.0742
     33 H2         -0.5714    1.8899   -0.8487 H         1 <0>         0.0693
     34 H3         -0.3824    1.8786    0.9211 H         1 <0>         0.0734
     35 H4         -0.3868   -0.1936   -2.1401 H         1 <0>         0.1211
     36 H5         -2.0363   -2.9190    5.3898 H         1 <0>         0.1432
     37 H6         -2.0156   -4.5586    7.2251 H         1 <0>         0.1318
     38 H7          2.2212   -4.9616    6.8041 H         1 <0>         0.1385
     39 H8          2.1880   -3.3283    4.9635 H         1 <0>         0.1426
     40 H9         -0.6334   -6.3954    8.3013 H         1 <0>         0.4178
     41 H10         3.1502   -6.4696   11.0054 H         1 <0>         0.1775
     42 H11         3.4694   -8.5657   13.1729 H         1 <0>         0.1435
     43 H12         0.2136  -11.3038   13.3141 H         1 <0>         0.1487
     44 H13        -0.8850  -10.1528   11.4473 H         1 <0>         0.1473
     45 H14         0.2872   -3.1811   -2.8217 H         1 <0>         0.0727
     46 H15        -1.2638   -3.7830   -2.1890 H         1 <0>         0.0728
     47 H16        -1.2139   -2.2791   -3.1398 H         1 <0>         0.0683
@<TRIPOS>BOND
     1    1    2 1
     2    1   32 1
     3    1   33 1
     4    1   34 1
     5    2    7 ar
     6    2    3 ar
     7    3    4 ar
     8    3   35 1
     9    4    5 ar
    10    4   31 1
    11    5    6 ar
    12    6    7 ar
    13    6    8 1
    14    8    9 1
    15    9   10 2
    16    9   11 2
    17    9   12 1
    18   12   17 ar
    19   12   13 ar
    20   13   14 ar
    21   13   36 1
    22   14   15 ar
    23   14   37 1
    24   15   16 ar
    25   15   18 1
    26   16   17 ar
    27   16   38 1
    28   17   39 1
    29   18   19 am
    30   18   40 1
    31   19   20 2
    32   19   21 1
    33   21   29 1
    34   21   22 2
    35   22   23 1
    36   22   41 1
    37   23   28 ar
    38   23   24 ar
    39   24   25 ar
    40   24   42 1
    41   25   26 ar
    42   25   30 1
    43   26   27 ar
    44   26   43 1
    45   27   28 ar
    46   27   44 1
    47   28   29 1
    48   31   45 1
    49   31   46 1
    50   31   47 1
@<TRIPOS>MOLECULE
ZINC40475536
   50    54     0     0     0
SMALL
USER_CHARGES

@<TRIPOS>ATOM
      1 C1         -0.0187    1.5258    0.0104 C.3       1 <0>        -0.1505
      2 C2          0.0021   -0.0041    0.0020 C.3       1 <0>         0.0510
      3 O1          0.6709   -0.4649   -1.1737 O.3       1 <0>        -0.3067
      4 C3          0.7768   -1.8109   -1.3363 C.ar      1 <0>         0.1085
      5 C4          0.2435   -2.6690   -0.3879 C.ar      1 <0>        -0.1702
      6 C5          0.3516   -4.0370   -0.5549 C.ar      1 <0>        -0.0403
      7 C6          0.9916   -4.5523   -1.6668 C.ar      1 <0>        -0.1203
      8 C7          1.5263   -3.7019   -2.6164 C.ar      1 <0>        -0.1022
      9 C8          1.4160   -2.3297   -2.4582 C.ar      1 <0>         0.0749
     10 O2          1.9361   -1.4917   -3.3945 O.3       1 <0>        -0.4859
     11 C9         -0.2290   -4.9686    0.4775 C.3       1 <0>         0.0852
     12 H1         -0.6907   -4.3888    1.2768 H         1 <0>         0.0955
     13 C10        -1.2567   -5.8541   -0.1623 C.2       1 <0>        -0.3002
     14 C11        -1.4985   -7.1854    0.0282 C.2       1 <0>         0.1148
     15 N1         -2.4763   -7.6905   -0.7212 N.2       1 <0>        -0.5568
     16 C12        -3.1622   -6.9461   -1.5621 C.2       1 <0>         0.2797
     17 S1         -4.4815   -7.4293   -2.6255 S.3       1 <0>        -0.7138
     18 S2         -2.4740   -5.4199   -1.3768 S.3       1 <0>         0.0755
     19 S3         -0.5539   -8.1256    1.2181 S.3       1 <0>         0.0134
     20 C13         0.2437   -6.7767    2.1273 C.3       1 <0>        -0.1465
     21 H2         -0.4676   -6.2481    2.7620 H         1 <0>         0.1585
     22 C14         0.8636   -5.8398    1.0477 C.3       1 <0>        -0.1153
     23 H3          1.3024   -6.4422    0.2522 H         1 <0>         0.1448
     24 C15         1.9640   -5.2025    1.8365 C.2       1 <0>         0.5547
     25 O3          2.4220   -4.0908    1.6815 O.2       1 <0>        -0.4290
     26 N2          2.3461   -6.1214    2.7614 N.am      1 <0>        -0.5389
     27 C16         1.4758   -7.1772    2.8916 C.2       1 <0>         0.5723
     28 O4          1.6577   -8.2191    3.4840 O.2       1 <0>        -0.4211
     29 C17         3.5126   -5.9985    3.5294 C.ar      1 <0>         0.1853
     30 C18         4.3387   -4.8945    3.3676 C.ar      1 <0>        -0.1445
     31 C19         5.4870   -4.7758    4.1259 C.ar      1 <0>        -0.0283
     32 C20         5.8141   -5.7553    5.0456 C.ar      1 <0>        -0.0671
     33 C21         4.9935   -6.8562    5.2086 C.ar      1 <0>        -0.0276
     34 C22         3.8409   -6.9776    4.4572 C.ar      1 <0>        -0.1462
     35 N3          7.0454   -5.6252    5.8567 N.pl3     1 <0>         0.0371
     36 O5          7.7640   -4.6633    5.7148 O.2       1 <0>        -0.1603
     37 O6          7.3326   -6.4808    6.6611 O.3       1 <0>        -0.1597
     38 H4          1.0039    1.9031    0.0027 H         1 <0>         0.0646
     39 H5         -0.5459    1.8868   -0.8726 H         1 <0>         0.0667
     40 H6         -0.5289    1.8773    0.9072 H         1 <0>         0.0770
     41 H7          0.5293   -0.3651    0.8851 H         1 <0>         0.0612
     42 H8         -1.0205   -0.3814    0.0098 H         1 <0>         0.0630
     43 H9         -0.2563   -2.2690    0.4819 H         1 <0>         0.1301
     44 H10         1.0743   -5.6217   -1.7935 H         1 <0>         0.1263
     45 H11         2.0261   -4.1070   -3.4839 H         1 <0>         0.1357
     46 H12         2.8557   -1.2414   -3.2309 H         1 <0>         0.3825
     47 H13         4.0838   -4.1294    2.6492 H         1 <0>         0.1760
     48 H14         6.1302   -3.9174    4.0002 H         1 <0>         0.1611
     49 H15         5.2518   -7.6198    5.9274 H         1 <0>         0.1616
     50 H16         3.1979   -7.8353    4.5884 H         1 <0>         0.1746
@<TRIPOS>BOND
     1    1    2 1
     2    1   38 1
     3    1   39 1
     4    1   40 1
     5    2    3 1
     6    2   41 1
     7    2   42 1
     8    3    4 1
     9    4    9 ar
    10    4    5 ar
    11    5    6 ar
    12    5   43 1
    13    6    7 ar
    14    6   11 1
    15    7    8 ar
    16    7   44 1
    17    8    9 ar
    18    8   45 1
    19    9   10 1
    20   10   46 1
    21   11   12 1
    22   11   22 1
    23   11   13 1
    24   13   18 1
    25   13   14 2
    26   14   15 1
    27   14   19 1
    28   15   16 2
    29   16   17 1
    30   16   18 1
    31   19   20 1
    32   20   21 1
    33   20   27 1
    34   20   22 1
    35   22   23 1
    36   22   24 1
    37   24   25 2
    38   24   26 am
    39   26   27 am
    40   26   29 1
    41   27   28 2
    42   29   34 ar
    43   29   30 ar
    44   30   31 ar
    45   30   47 1
    46   31   32 ar
    47   31   48 1
    48   32   33 ar
    49   32   35 1
    50   33   34 ar
    51   33   49 1
    52   34   50 1
    53   35   36 2
    54   35   37 1
@<TRIPOS>MOLECULE
ZINC06445684
   45    48     0     0     0
SMALL
USER_CHARGES
chloro-nitro-(2-nitrophenyl)sulfanyl-BLAHcarboxylic acid
@<TRIPOS>ATOM
      1 C1         -0.8472   12.3322   -2.9783 C.ar      1 <0>        -0.1352
      2 C2         -1.3532   11.7096   -1.8514 C.ar      1 <0>        -0.0458
      3 C3         -1.6886   10.3710   -1.8922 C.ar      1 <0>        -0.1424
      4 C4         -1.5065    9.6460   -3.0640 C.ar      1 <0>        -0.0566
      5 C5         -0.9980   10.2748   -4.1940 C.ar      1 <0>        -0.0422
      6 C6         -0.6700   11.6155   -4.1475 C.ar      1 <0>        -0.0339
      7 N1         -0.8084    9.5087   -5.4461 N.pl3     1 <0>         0.0310
      8 O1         -0.3626   10.0605   -6.4362 O.2       1 <0>        -0.1722
      9 O2         -1.0983    8.3263   -5.4864 O.3       1 <0>        -0.1401
     10 S1         -1.9263    7.9357   -3.1187 S.3       1 <0>         0.0769
     11 C7         -2.5324    7.5789   -1.4465 C.3       1 <0>        -0.1425
     12 H1         -3.3241    8.2790   -1.1795 H         1 <0>         0.1157
     13 C8         -1.3772    7.6775   -0.4351 C.3       1 <0>        -0.1100
     14 C9         -1.2495    6.2899    0.2291 C.3       1 <0>        -0.1267
     15 H2         -1.0032    6.3769    1.2873 H         1 <0>         0.0925
     16 C10        -0.2013    5.4801   -0.5384 C.3       1 <0>         0.0359
     17 N2         -0.1064    4.1387    0.0386 N.pl3     1 <0>        -0.5836
     18 C11        -1.3209    3.4718    0.0330 C.ar      1 <0>         0.1577
     19 C12        -1.3017    2.0625    0.0194 C.ar      1 <0>        -0.0596
     20 C13        -2.5006    1.3485    0.0212 C.ar      1 <0>        -0.0678
     21 C14        -3.6987    2.0286    0.0286 C.ar      1 <0>        -0.0833
     22 C15        -3.7143    3.4114    0.0310 C.ar      1 <0>        -0.0320
     23 C16        -2.5334    4.1393    0.0292 C.ar      1 <0>        -0.0810
     24 C17        -2.6299    5.6378    0.0256 C.3       1 <0>        -0.0447
     25 H3         -3.3383    5.9743    0.7826 H         1 <0>         0.1281
     26 C18        -3.0605    6.1312   -1.3736 C.3       1 <0>         0.0131
     27 H4         -4.1465    6.1145   -1.4661 H         1 <0>         0.1364
     28 Cl1        -2.3041    5.1187   -2.6595 Cl        1 <0>        -0.1295
     29 N3         -5.0107    4.1256    0.0360 N.pl3     1 <0>         0.0433
     30 O3         -6.0531    3.4956    0.0380 O.2       1 <0>        -0.1690
     31 O4         -5.0351    5.3433    0.0382 O.3       1 <0>        -0.1933
     32 C19        -0.0162    1.3435    0.0094 C.2       1 <0>         0.4845
     33 O5          1.0278    1.9653    0.0028 O.co2     1 <0>        -0.5865
     34 H5         -0.5895   13.3804   -2.9447 H         1 <0>         0.1463
     35 H6         -1.4902   12.2725   -0.9399 H         1 <0>         0.1431
     36 H7         -2.0882    9.8867   -1.0134 H         1 <0>         0.1468
     37 H8         -0.2743   12.1047   -5.0253 H         1 <0>         0.1544
     38 H9         -0.4508    7.9311   -0.9505 H         1 <0>         0.0842
     39 H10        -1.6038    8.4326    0.3175 H         1 <0>         0.0790
     40 H11        -0.4945    5.4055   -1.5855 H         1 <0>         0.1048
     41 H12         0.7664    5.9764   -0.4658 H         1 <0>         0.0846
     42 H13         0.2792    4.1723    0.9705 H         1 <0>         0.3640
     43 H14        -2.4894    0.2686    0.0173 H         1 <0>         0.1576
     44 H15        -4.6289    1.4800    0.0320 H         1 <0>         0.1481
     45 O6          0.0021   -0.0041    0.0020 O.co2     1 <0>        -0.7501
@<TRIPOS>BOND
     1    1    6 ar
     2    1    2 ar
     3    1   34 1
     4    2    3 ar
     5    2   35 1
     6    3    4 ar
     7    3   36 1
     8    4    5 ar
     9    4   10 1
    10    5    6 ar
    11    5    7 1
    12    6   37 1
    13    7    8 2
    14    7    9 1
    15   10   11 1
    16   11   12 1
    17   11   26 1
    18   11   13 1
    19   13   14 1
    20   13   38 1
    21   13   39 1
    22   14   15 1
    23   14   24 1
    24   14   16 1
    25   16   17 1
    26   16   40 1
    27   16   41 1
    28   17   18 1
    29   17   42 1
    30   18   23 ar
    31   18   19 ar
    32   19   20 ar
    33   19   32 1
    34   20   21 ar
    35   20   43 1
    36   21   22 ar
    37   21   44 1
    38   22   23 ar
    39   22   29 1
    40   23   24 1
    41   24   25 1
    42   24   26 1
    43   26   27 1
    44   26   28 1
    45   29   30 2
    46   29   31 1
    47   32   33 2
    48   32   45 1
@<TRIPOS>MOLECULE
ZINC21110439
   47    51     0     0     0
SMALL
USER_CHARGES
4-bromo-N-[5-methyl-2-(4-oxo-1-phenyl-5H-pyrazolo[5,4-d]pyrimidin-6-yl)pyrazol-3-yl]benzamide
@<TRIPOS>ATOM
      1 C1         -6.8517    5.6638    0.4321 C.3       1 <0>        -0.0677
      2 C2         -5.3488    5.5873    0.3518 C.2       1 <0>         0.0765
      3 C3         -4.5911    4.4117    0.3261 C.2       1 <0>        -0.2737
      4 C4         -3.2785    4.7621    0.2539 C.2       1 <0>         0.3374
      5 N1         -3.2212    6.1251    0.2257 N.pl3     1 <0>        -0.3093
      6 N2         -4.5344    6.6087    0.2885 N.2       1 <0>        -0.2567
      7 C5         -2.0716    6.8924    0.1491 C.ar      1 <0>         0.6112
      8 N3         -1.5264    7.3665    1.3041 N.ar      1 <0>        -0.6493
      9 C6         -0.3993    8.1151    1.2683 C.ar      1 <0>         0.5561
     10 O1          0.1060    8.5441    2.2906 O.3       1 <0>        -0.5712
     11 C7          0.1862    8.3959   -0.0413 C.ar      1 <0>        -0.3917
     12 C8          1.3124    9.1149   -0.4858 C.2       1 <0>         0.1290
     13 N4          1.3639    9.0362   -1.7870 N.2       1 <0>        -0.3001
     14 N5          0.2874    8.2712   -2.2534 N.pl3     1 <0>        -0.3419
     15 C9         -0.4480    7.8700   -1.1794 C.ar      1 <0>         0.3733
     16 N6         -1.5582    7.1355   -1.0303 N.ar      1 <0>        -0.6189
     17 C10         0.0145    7.9700   -3.5936 C.ar      1 <0>         0.1792
     18 C11        -0.4257    6.7008   -3.9458 C.ar      1 <0>        -0.1130
     19 C12        -0.6990    6.4085   -5.2677 C.ar      1 <0>        -0.1023
     20 C13        -0.5238    7.3746   -6.2415 C.ar      1 <0>        -0.1335
     21 C14        -0.0806    8.6377   -5.8947 C.ar      1 <0>        -0.1069
     22 C15         0.1889    8.9381   -4.5739 C.ar      1 <0>        -0.1198
     23 N7         -2.1938    3.8905    0.2106 N.am      1 <0>        -0.6499
     24 C16        -2.4004    2.5614    0.1247 C.2       1 <0>         0.5693
     25 O2         -3.5287    2.1290   -0.0095 O.2       1 <0>        -0.5046
     26 C17        -1.2555    1.6298    0.1936 C.ar      1 <0>        -0.1106
     27 C18         0.0494    2.1247    0.2344 C.ar      1 <0>        -0.0770
     28 C19         1.1139    1.2501    0.2938 C.ar      1 <0>        -0.0939
     29 C20         0.8908   -0.1165    0.3117 C.ar      1 <0>        -0.0672
     30 C21        -0.4011   -0.6135    0.2710 C.ar      1 <0>        -0.0981
     31 C22        -1.4740    0.2509    0.2124 C.ar      1 <0>        -0.0500
     32 Br1         2.3562   -1.3089    0.3927 Br        1 <0>        -0.0437
     33 H1         -7.2689    4.6468    0.4737 H         1 <0>         0.0772
     34 H2         -7.2403    6.1835   -0.4561 H         1 <0>         0.0733
     35 H3         -7.1428    6.2169    1.3373 H         1 <0>         0.0742
     36 H4         -4.9791    3.4044    0.3602 H         1 <0>         0.1722
     37 H5          2.0140    9.6424    0.1435 H         1 <0>         0.1872
     38 H6         -0.5581    5.9445   -3.1863 H         1 <0>         0.1284
     39 H7         -1.0459    5.4231   -5.5416 H         1 <0>         0.1259
     40 H8         -0.7339    7.1422   -7.2750 H         1 <0>         0.1227
     41 H9          0.0552    9.3901   -6.6575 H         1 <0>         0.1258
     42 H10         0.5347    9.9249   -4.3036 H         1 <0>         0.1283
     43 H11        -1.1682    4.2866    0.2465 H         1 <0>         0.4357
     44 H12         0.2248    3.1903    0.2197 H         1 <0>         0.1346
     45 H13         2.1238    1.6317    0.3261 H         1 <0>         0.1420
     46 H14        -0.5688   -1.6803    0.2856 H         1 <0>         0.1420
     47 H15        -2.4811   -0.1379    0.1814 H         1 <0>         0.1494
@<TRIPOS>BOND
     1    1    2 1
     2    1   33 1
     3    1   34 1
     4    1   35 1
     5    2    6 2
     6    2    3 1
     7    3    4 2
     8    3   36 1
     9    4    5 1
    10    4   23 1
    11    5    6 1
    12    5    7 1
    13    7   16 ar
    14    7    8 ar
    15    8    9 ar
    16    9   10 1
    17    9   11 ar
    18   11   15 ar
    19   11   12 1
    20   12   13 2
    21   12   37 1
    22   13   14 1
    23   14   15 1
    24   14   17 1
    25   15   16 ar
    26   17   22 ar
    27   17   18 ar
    28   18   19 ar
    29   18   38 1
    30   19   20 ar
    31   19   39 1
    32   20   21 ar
    33   20   40 1
    34   21   22 ar
    35   21   41 1
    36   22   42 1
    37   23   24 am
    38   23   43 1
    39   24   25 2
    40   24   26 1
    41   26   31 ar
    42   26   27 ar
    43   27   28 ar
    44   27   44 1
    45   28   29 ar
    46   28   45 1
    47   29   30 ar
    48   29   32 1
    49   30   31 ar
    50   30   46 1
    51   31   47 1
@<TRIPOS>MOLECULE
ZINC35455725
   54    57     0     0     0
SMALL
USER_CHARGES

@<TRIPOS>ATOM
      1 C1         -0.1983    1.4877    0.0181 C.3       1 <0>        -0.1254
      2 C2         -0.0863   -0.0151    0.0084 C.2       1 <0>        -0.1095
      3 C3          0.1206   -0.6637    1.1276 C.2       1 <0>        -0.1879
      4 C4          0.1232    0.0784    2.4392 C.3       1 <0>         0.1549
      5 N1         -0.8365   -0.5442    3.3544 N.am      1 <0>        -0.5742
      6 C5         -2.1375   -0.2107    3.4596 C.2       1 <0>         0.5636
      7 O1         -2.7182    0.6492    2.8216 O.2       1 <0>        -0.5009
      8 C6         -2.7041   -1.0504    4.4545 C.2       1 <0>        -0.0571
      9 C7         -3.9962   -1.0566    4.8835 C.2       1 <0>         0.1055
     10 C8         -4.4164   -1.9937    5.9243 C.2       1 <0>        -0.4026
     11 C9         -5.1706   -1.6766    7.1442 C.2       1 <0>         0.1771
     12 N2         -5.3366   -2.8021    7.8001 N.2       1 <0>        -0.3229
     13 N3         -4.7386   -3.8462    7.0897 N.pl3     1 <0>        -0.3824
     14 C10        -4.1874   -3.3666    5.9550 C.2       1 <0>         0.4412
     15 O2         -3.5287   -4.0888    5.0182 O.3       1 <0>        -0.6570
     16 C11        -4.7196   -5.1881    7.4913 C.ar      1 <0>         0.2565
     17 C12        -4.7891   -6.1994    6.5422 C.ar      1 <0>        -0.1252
     18 C13        -4.7697   -7.5215    6.9413 C.ar      1 <0>        -0.0329
     19 C14        -4.6815   -7.8386    8.2844 C.ar      1 <0>        -0.0830
     20 C15        -4.6121   -6.8338    9.2319 C.ar      1 <0>        -0.0367
     21 C16        -4.6253   -5.5099    8.8389 C.ar      1 <0>        -0.1364
     22 N4         -4.6618   -9.2566    8.7087 N.pl3     1 <0>         0.0451
     23 O3         -4.7229  -10.1360    7.8814 O.2       1 <0>        -0.1727
     24 O4         -4.5848   -9.5352    9.8826 O.3       1 <0>        -0.1743
     25 C17        -5.6532   -0.3377    7.5575 C.ar      1 <0>         0.0055
     26 C18        -4.8973    0.7980    7.2695 C.ar      1 <0>        -0.0790
     27 C19        -5.3511    2.0421    7.6566 C.ar      1 <0>        -0.1097
     28 C20        -6.5546    2.1639    8.3302 C.ar      1 <0>        -0.0331
     29 C21        -7.3088    1.0394    8.6191 C.ar      1 <0>        -0.1131
     30 C22        -6.8674   -0.2088    8.2307 C.ar      1 <0>        -0.0806
     31 Cl1        -7.1196    3.7322    8.8149 Cl        1 <0>        -0.0783
     32 N5         -1.6596   -1.8735    4.9050 N.am      1 <0>        -0.6333
     33 C23        -0.5546   -1.5387    4.2125 C.2       1 <0>         0.6928
     34 O5          0.5375   -2.0574    4.3461 O.2       1 <0>        -0.5561
     35 C24        -0.2123   -0.7717   -1.2888 C.3       1 <0>        -0.1173
     36 H1          0.6876    1.9151    0.4880 H         1 <0>         0.0658
     37 H2         -0.2783    1.8527   -1.0058 H         1 <0>         0.0612
     38 H3         -1.0851    1.7824    0.5793 H         1 <0>         0.0768
     39 H4          0.2894   -1.7303    1.1103 H         1 <0>         0.1133
     40 H5          1.1206    0.0392    2.8769 H         1 <0>         0.0964
     41 H6         -0.1585    1.1176    2.2692 H         1 <0>         0.0983
     42 H7         -4.7107   -0.3693    4.4552 H         1 <0>         0.1352
     43 H8         -4.8587   -5.9524    5.4931 H         1 <0>         0.1606
     44 H9         -4.8237   -8.3085    6.2036 H         1 <0>         0.1535
     45 H10        -4.5436   -7.0846   10.2802 H         1 <0>         0.1527
     46 H11        -4.5666   -4.7256    9.5791 H         1 <0>         0.1508
     47 H12        -3.9581    0.7040    6.7447 H         1 <0>         0.1380
     48 H13        -4.7665    2.9225    7.4340 H         1 <0>         0.1355
     49 H14        -8.2467    1.1399    9.1452 H         1 <0>         0.1336
     50 H15        -7.4588   -1.0849    8.4522 H         1 <0>         0.1362
     51 H16        -1.7232   -2.5598    5.5875 H         1 <0>         0.4372
     52 H17         0.7720   -0.8775   -1.7448 H         1 <0>         0.0662
     53 H18        -0.6307   -1.7592   -1.0942 H         1 <0>         0.0630
     54 H19        -0.8694   -0.2255   -1.9656 H         1 <0>         0.0649
@<TRIPOS>BOND
     1    1    2 1
     2    1   36 1
     3    1   37 1
     4    1   38 1
     5    2    3 2
     6    2   35 1
     7    3    4 1
     8    3   39 1
     9    4    5 1
    10    4   40 1
    11    4   41 1
    12    5   33 am
    13    5    6 am
    14    6    7 2
    15    6    8 1
    16    8    9 2
    17    8   32 1
    18    9   10 1
    19    9   42 1
    20   10   14 2
    21   10   11 1
    22   11   12 2
    23   11   25 1
    24   12   13 1
    25   13   14 1
    26   13   16 1
    27   14   15 1
    28   16   21 ar
    29   16   17 ar
    30   17   18 ar
    31   17   43 1
    32   18   19 ar
    33   18   44 1
    34   19   20 ar
    35   19   22 1
    36   20   21 ar
    37   20   45 1
    38   21   46 1
    39   22   23 2
    40   22   24 1
    41   25   30 ar
    42   25   26 ar
    43   26   27 ar
    44   26   47 1
    45   27   28 ar
    46   27   48 1
    47   28   29 ar
    48   28   31 1
    49   29   30 ar
    50   29   49 1
    51   30   50 1
    52   32   33 am
    53   32   51 1
    54   33   34 2
    55   35   52 1
    56   35   53 1
    57   35   54 1
@<TRIPOS>MOLECULE
ZINC40000372
   54    58     0     0     0
SMALL
USER_CHARGES

@<TRIPOS>ATOM
      1 C1         -0.3729    1.5484    0.3435 C.3       1 <0>        -0.1379
      2 C2         -0.2938    0.0230    0.2552 C.3       1 <0>        -0.1139
      3 S1         -1.9611   -0.6779    0.3943 S.3       1 <0>         0.0284
      4 C3         -1.7037   -2.4170    0.2759 C.2       1 <0>        -0.0268
      5 N1         -0.5797   -3.1039    0.1273 N.2       1 <0>        -0.2502
      6 N2         -0.5721   -4.3633    0.0595 N.2       1 <0>        -0.3118
      7 C4         -1.6850   -5.0762    0.1324 C.2       1 <0>         0.3241
      8 S2         -2.8847   -3.7617    0.3300 S.3       1 <0>         0.0844
      9 N3         -1.8693   -6.4527    0.0770 N.am      1 <0>        -0.4982
     10 C5         -0.8128   -7.4599   -0.0760 C.3       1 <0>         0.2666
     11 H1         -0.1157   -7.4019    0.7600 H         1 <0>         0.0907
     12 C6         -1.5081   -8.8014   -0.0807 C.2       1 <0>        -0.4819
     13 C7         -2.8326   -8.5549    0.0577 C.2       1 <0>         0.2718
     14 C8         -3.0470   -7.0977    0.1600 C.2       1 <0>         0.5114
     15 O1         -4.1284   -6.5599    0.2970 O.2       1 <0>        -0.4847
     16 O2         -3.8047   -9.4952    0.0999 O.3       1 <0>        -0.6317
     17 C9         -0.8721  -10.1152   -0.2104 C.2       1 <0>         0.5116
     18 O3         -1.0847  -10.7998   -1.1940 O.2       1 <0>        -0.4657
     19 C10         0.0265  -10.6085    0.8520 C.ar      1 <0>        -0.1664
     20 C11         0.1777   -9.8853    2.0392 C.ar      1 <0>        -0.0300
     21 C12         1.0110  -10.3483    3.0292 C.ar      1 <0>        -0.1521
     22 C13         1.7149  -11.5423    2.8602 C.ar      1 <0>         0.1218
     23 C14         1.5665  -12.2540    1.6727 C.ar      1 <0>        -0.1923
     24 C15         0.7292  -11.8060    0.6815 C.ar      1 <0>        -0.0197
     25 C16         2.4617  -13.4743    1.7724 C.3       1 <0>        -0.1030
     26 C17         3.3765  -13.1028    2.9633 C.3       1 <0>         0.0756
     27 H2          4.2912  -12.6245    2.6129 H         1 <0>         0.0860
     28 O4          2.5697  -12.1748    3.7079 O.3       1 <0>        -0.3025
     29 C18         3.7017  -14.3396    3.8033 C.3       1 <0>        -0.1487
     30 C19        -0.0806   -7.2496   -1.3762 C.ar      1 <0>        -0.0550
     31 C20        -0.7894   -6.9768   -2.5319 C.ar      1 <0>        -0.0996
     32 C21        -0.1206   -6.7834   -3.7263 C.ar      1 <0>        -0.1039
     33 C22         1.2581   -6.8627   -3.7681 C.ar      1 <0>        -0.1472
     34 C23         1.9713   -7.1361   -2.6103 C.ar      1 <0>         0.1011
     35 C24         1.2982   -7.3238   -1.4116 C.ar      1 <0>        -0.1214
     36 O5          3.3275   -7.2146   -2.6488 O.3       1 <0>        -0.4996
     37 H3          0.6290    1.9696    0.2600 H         1 <0>         0.0789
     38 H4         -0.9952    1.9275   -0.4671 H         1 <0>         0.0667
     39 H5         -0.8088    1.8349    1.3006 H         1 <0>         0.0668
     40 H6          0.1421   -0.2634   -0.7019 H         1 <0>         0.0951
     41 H7          0.3285   -0.3561    1.0659 H         1 <0>         0.0953
     42 H8         -0.3617   -8.9601    2.1785 H         1 <0>         0.1410
     43 H9          1.1224   -9.7847    3.9437 H         1 <0>         0.1296
     44 H10         0.6160  -12.3749   -0.2295 H         1 <0>         0.1325
     45 H11         1.8785  -14.3683    1.9932 H         1 <0>         0.0897
     46 H12         3.0438  -13.6061    0.8603 H         1 <0>         0.0903
     47 H13         4.2130  -15.0758    3.1831 H         1 <0>         0.0780
     48 H14         4.3460  -14.0547    4.6350 H         1 <0>         0.0668
     49 H15         2.7776  -14.7693    4.1901 H         1 <0>         0.0673
     50 H16        -1.8672   -6.9151   -2.5014 H         1 <0>         0.1146
     51 H17        -0.6764   -6.5705   -4.6275 H         1 <0>         0.1228
     52 H18         1.7800   -6.7122   -4.7016 H         1 <0>         0.1231
     53 H19         1.8515   -7.5322   -0.5078 H         1 <0>         0.1271
     54 H20         3.7749   -6.3722   -2.4895 H         1 <0>         0.3850
@<TRIPOS>BOND
     1    1    2 1
     2    1   37 1
     3    1   38 1
     4    1   39 1
     5    2    3 1
     6    2   40 1
     7    2   41 1
     8    3    4 1
     9    4    8 1
    10    4    5 2
    11    5    6 1
    12    6    7 2
    13    7    8 1
    14    7    9 1
    15    9   14 am
    16    9   10 1
    17   10   11 1
    18   10   12 1
    19   10   30 1
    20   12   13 2
    21   12   17 1
    22   13   14 1
    23   13   16 1
    24   14   15 2
    25   17   18 2
    26   17   19 1
    27   19   24 ar
    28   19   20 ar
    29   20   21 ar
    30   20   42 1
    31   21   22 ar
    32   21   43 1
    33   22   28 1
    34   22   23 ar
    35   23   24 ar
    36   23   25 1
    37   24   44 1
    38   25   26 1
    39   25   45 1
    40   25   46 1
    41   26   27 1
    42   26   28 1
    43   26   29 1
    44   29   47 1
    45   29   48 1
    46   29   49 1
    47   30   35 ar
    48   30   31 ar
    49   31   32 ar
    50   31   50 1
    51   32   33 ar
    52   32   51 1
    53   33   34 ar
    54   33   52 1
    55   34   35 ar
    56   34   36 1
    57   35   53 1
    58   36   54 1
@<TRIPOS>MOLECULE
ZINC13388808
   40    43     0     0     0
SMALL
USER_CHARGES

@<TRIPOS>ATOM
      1 C1         -0.0677    1.6965    0.2210 C.3       1 <0>         0.0230
      2 O1          0.0551    0.2753    0.1371 O.3       1 <0>        -0.3130
      3 C2          0.6764   -0.3524    1.1699 C.ar      1 <0>         0.1755
      4 C3          1.1529    0.3838    2.2449 C.ar      1 <0>        -0.2305
      5 C4          1.7838   -0.2566    3.2938 C.ar      1 <0>         0.0244
      6 C5          1.9408   -1.6302    3.2727 C.ar      1 <0>        -0.6693
      7 C6          1.4671   -2.3662    2.2023 C.ar      1 <0>         0.0219
      8 C7          0.8301   -1.7311    1.1538 C.ar      1 <0>        -0.1725
      9 S1          2.7463   -2.4440    4.6119 S.o2      1 <0>         2.6313
     10 O2          3.2517   -3.6687    4.0981 O.2       1 <0>        -0.9711
     11 O3          3.5812   -1.4759    5.2324 O.2       1 <0>        -0.9730
     12 N1          1.5789   -2.8404    5.7175 N.2       1 <0>        -0.9376
     13 C8          1.9071   -3.4607    6.8211 C.2       1 <0>         0.5664
     14 N2          1.1029   -3.8687    7.8304 N.2       1 <0>        -0.6178
     15 C9          1.5610   -4.4742    8.8696 C.2       1 <0>         0.4978
     16 O4          0.7454   -4.8762    9.8695 O.3       1 <0>        -0.5697
     17 C10         3.0253   -4.7115    8.9203 C.2       1 <0>        -0.0300
     18 C11         3.7891   -5.3283    9.8964 C.2       1 <0>        -0.0672
     19 C12         3.3617   -5.7290   11.2524 C.ar      1 <0>        -0.0872
     20 C13         2.1550   -5.6286   11.9407 C.ar      1 <0>        -0.0449
     21 C14         2.0627   -6.1065   13.2330 C.ar      1 <0>        -0.0674
     22 C15         3.1670   -6.6832   13.8408 C.ar      1 <0>        -0.0704
     23 C16         4.3674   -6.7867   13.1667 C.ar      1 <0>        -0.1398
     24 C17         4.4806   -6.3121   11.8651 C.ar      1 <0>         0.1534
     25 N3          5.5514   -6.2925   10.9781 N.am      1 <0>        -0.6522
     26 C18         5.2055   -5.7340    9.8056 C.2       1 <0>         0.5589
     27 O5          5.9323   -5.5858    8.8410 O.2       1 <0>        -0.4761
     28 Cl1         0.5622   -5.9844   14.0975 Cl        1 <0>        -0.0700
     29 S2          3.5265   -3.9851    7.3644 S.3       1 <0>        -0.1769
     30 H1          0.9244    2.1440    0.2815 H         1 <0>         0.0590
     31 H2         -0.5812    2.0698   -0.6650 H         1 <0>         0.1023
     32 H3         -0.6399    1.9599    1.1106 H         1 <0>         0.0601
     33 H4          1.0312    1.4568    2.2615 H         1 <0>         0.1380
     34 H5          2.1549    0.3161    4.1309 H         1 <0>         0.1448
     35 H6          1.5913   -3.4389    2.1880 H         1 <0>         0.1494
     36 H7          0.4564   -2.3069    0.3201 H         1 <0>         0.1414
     37 H8          1.2955   -5.1787   11.4661 H         1 <0>         0.1977
     38 H9          3.0877   -7.0549   14.8517 H         1 <0>         0.1376
     39 H10         5.2204   -7.2379   13.6516 H         1 <0>         0.1349
     40 H11         6.4340   -6.6415   11.1784 H         1 <0>         0.4192
@<TRIPOS>BOND
     1    1    2 1
     2    1   30 1
     3    1   31 1
     4    1   32 1
     5    2    3 1
     6    3    8 ar
     7    3    4 ar
     8    4    5 ar
     9    4   33 1
    10    5    6 ar
    11    5   34 1
    12    6    7 ar
    13    6    9 1
    14    7    8 ar
    15    7   35 1
    16    8   36 1
    17    9   10 2
    18    9   11 2
    19    9   12 1
    20   12   13 2
    21   13   29 1
    22   13   14 1
    23   14   15 2
    24   15   16 1
    25   15   17 1
    26   17   18 2
    27   17   29 1
    28   18   26 1
    29   18   19 1
    30   19   24 ar
    31   19   20 ar
    32   20   21 ar
    33   20   37 1
    34   21   22 ar
    35   21   28 1
    36   22   23 ar
    37   22   38 1
    38   23   24 ar
    39   23   39 1
    40   24   25 1
    41   25   26 am
    42   25   40 1
    43   26   27 2
@<TRIPOS>MOLECULE
ZINC09056373
   48    53     0     0     0
SMALL
USER_CHARGES
4-(nitro-dioxo-BLAHyl)benzoic acid
@<TRIPOS>ATOM
      1 C1         -1.2169    1.7727    0.0173 C.ar      1 <0>        -0.0975
      2 C2         -1.2117    3.1550    0.0567 C.ar      1 <0>        -0.1128
      3 C3         -0.0219    3.8664    0.0462 C.ar      1 <0>        -0.0891
      4 C4          1.1672    3.1782   -0.0125 C.ar      1 <0>        -0.0943
      5 C5          1.1431    1.7872    0.0007 C.ar      1 <0>        -0.0694
      6 C6         -0.0126    1.0758    0.0080 C.ar      1 <0>        -0.0951
      7 C7          2.5582    1.1738    0.0852 C.3       1 <0>         0.0268
      8 C8          3.1879    1.7530   -1.1764 C.ar      1 <0>        -0.0725
      9 C9          3.8350    0.9847   -2.1119 C.ar      1 <0>        -0.0899
     10 C10         4.3231    1.5919   -3.2592 C.ar      1 <0>        -0.1075
     11 C11         4.1605    2.9485   -3.4716 C.ar      1 <0>        -0.1047
     12 C12         3.5242    3.7310   -2.5128 C.ar      1 <0>        -0.0972
     13 C13         3.0798    3.1264   -1.3809 C.ar      1 <0>        -0.0846
     14 C14         2.5110    3.8989   -0.1541 C.3       1 <0>         0.1338
     15 C15         3.5261    3.3259    0.8364 C.3       1 <0>        -0.1282
     16 H1          4.4760    3.1785    0.3226 H         1 <0>         0.1424
     17 C16         2.9964    1.9437    1.2975 C.3       1 <0>        -0.1320
     18 H2          2.0827    2.1918    1.8375 H         1 <0>         0.1254
     19 C17         3.9887    1.6161    2.3275 C.2       1 <0>         0.5635
     20 O1          4.4624    0.5344    2.6014 O.2       1 <0>        -0.4353
     21 N1          4.2475    2.8305    2.9203 N.am      1 <0>        -0.5375
     22 C18         3.7928    3.8970    2.1834 C.2       1 <0>         0.5414
     23 O2          3.6427    5.0432    2.5484 O.2       1 <0>        -0.3987
     24 C19         4.9060    2.9652    4.1458 C.ar      1 <0>         0.1038
     25 C20         5.1351    4.2309    4.6747 C.ar      1 <0>        -0.1541
     26 C21         5.7791    4.3674    5.8840 C.ar      1 <0>        -0.0559
     27 C22         6.2124    3.2323    6.5750 C.ar      1 <0>        -0.1160
     28 C23         5.9851    1.9621    6.0377 C.ar      1 <0>        -0.0663
     29 C24         5.3357    1.8334    4.8304 C.ar      1 <0>        -0.1550
     30 C25         6.9083    3.3745    7.8679 C.2       1 <0>         0.4890
     31 O3          7.2846    2.3868    8.4671 O.co2     1 <0>        -0.6300
     32 N2          2.4603    5.3600   -0.2486 N.pl3     1 <0>        -0.0017
     33 O4          1.8068    5.8910   -1.1286 O.2       1 <0>        -0.1545
     34 O5          3.0716    6.0437    0.5529 O.3       1 <0>        -0.0893
     35 H3         -2.1535    1.2352   -0.0020 H         1 <0>         0.1354
     36 H4         -2.1497    3.6891    0.0921 H         1 <0>         0.1327
     37 H5         -0.0288    4.9457    0.0832 H         1 <0>         0.1311
     38 H6          0.0021   -0.0041    0.0020 H         1 <0>         0.1433
     39 H7          2.6074    0.0881    0.1683 H         1 <0>         0.1463
     40 H8          3.9617   -0.0766   -1.9569 H         1 <0>         0.1408
     41 H9          4.8378    0.9959   -3.9983 H         1 <0>         0.1326
     42 H10         4.5275    3.4008   -4.3811 H         1 <0>         0.1348
     43 H11         3.3870    4.7913   -2.6650 H         1 <0>         0.1363
     44 H12         4.8036    5.1076    4.1382 H         1 <0>         0.1441
     45 H13         5.9526    5.3504    6.2963 H         1 <0>         0.1400
     46 H14         6.3182    1.0827    6.5689 H         1 <0>         0.1354
     47 H15         5.1600    0.8524    4.4144 H         1 <0>         0.1420
     48 O6          7.1265    4.5997    8.3844 O.co2     1 <0>        -0.7516
@<TRIPOS>BOND
     1    1    6 ar
     2    1    2 ar
     3    1   35 1
     4    2    3 ar
     5    2   36 1
     6    3    4 ar
     7    3   37 1
     8    4   14 1
     9    4    5 ar
    10    5    6 ar
    11    5    7 1
    12    6   38 1
    13    7   17 1
    14    7    8 1
    15    7   39 1
    16    8   13 ar
    17    8    9 ar
    18    9   10 ar
    19    9   40 1
    20   10   11 ar
    21   10   41 1
    22   11   12 ar
    23   11   42 1
    24   12   13 ar
    25   12   43 1
    26   13   14 1
    27   14   15 1
    28   14   32 1
    29   15   16 1
    30   15   22 1
    31   15   17 1
    32   17   18 1
    33   17   19 1
    34   19   20 2
    35   19   21 am
    36   21   22 am
    37   21   24 1
    38   22   23 2
    39   24   29 ar
    40   24   25 ar
    41   25   26 ar
    42   25   44 1
    43   26   27 ar
    44   26   45 1
    45   27   28 ar
    46   27   30 1
    47   28   29 ar
    48   28   46 1
    49   29   47 1
    50   30   31 2
    51   30   48 1
    52   32   33 2
    53   32   34 1
@<TRIPOS>MOLECULE
ZINC12362919
   49    52     0     0     0
SMALL
USER_CHARGES
(5E)-5-[[2,5-dimethyl-1-(3-nitrophenyl)pyrrol-3-yl]methylene]-1-phenyl-2-thioxo-hexahydropyrimidine-4,6-dione
@<TRIPOS>ATOM
      1 C1          2.8535    1.3798    0.7998 C.3       1 <0>        -0.0817
      2 C2          1.7040    1.1385   -0.1444 C.2       1 <0>        -0.0079
      3 C3          0.8025    0.1495   -0.0347 C.2       1 <0>        -0.0688
      4 C4         -0.1231    0.3034   -1.1672 C.2       1 <0>        -0.1609
      5 C5          0.3250    1.4089   -1.8752 C.2       1 <0>         0.0721
      6 N1          1.4148    1.8919   -1.2491 N.pl3     1 <0>        -0.4041
      7 C6          2.1496    3.0083   -1.6701 C.ar      1 <0>         0.1348
      8 C7          2.8379    2.9739   -2.8757 C.ar      1 <0>        -0.0612
      9 C8          3.5569    4.0777   -3.2904 C.ar      1 <0>        -0.1016
     10 C9          3.6009    5.2125   -2.5011 C.ar      1 <0>        -0.0527
     11 C10         2.9213    5.2478   -1.2976 C.ar      1 <0>        -0.0328
     12 C11         2.1957    4.1490   -0.8801 C.ar      1 <0>        -0.0510
     13 N2          2.9709    6.4643   -0.4559 N.pl3     1 <0>         0.0280
     14 O1          2.3722    6.4961    0.6043 O.2       1 <0>        -0.1539
     15 O2          3.6105    7.4335   -0.8234 O.3       1 <0>        -0.1535
     16 C12        -0.2956    1.9676   -3.1296 C.3       1 <0>        -0.0944
     17 C13        -1.2409   -0.5095   -1.4721 C.2       1 <0>         0.1037
     18 C14        -1.1283   -1.8891   -1.4219 C.2       1 <0>        -0.2910
     19 C15         0.1793   -2.5489   -1.2483 C.2       1 <0>         0.5276
     20 O3          1.2001   -1.8953   -1.1435 O.3       1 <0>        -0.5010
     21 N3          0.2118   -3.8968   -1.2030 N.2       1 <0>        -0.6266
     22 C16        -0.9044   -4.6291   -1.3230 C.2       1 <0>         0.5445
     23 S1         -0.7652   -6.3343   -1.2614 S.2       1 <0>        -0.6926
     24 N4         -2.1237   -4.0977   -1.4881 N.am      1 <0>        -0.5114
     25 C17        -2.3095   -2.7628   -1.5458 C.2       1 <0>         0.5606
     26 O4         -3.4215   -2.2926   -1.6964 O.2       1 <0>        -0.5134
     27 C18        -3.2310   -4.9482   -1.6029 C.ar      1 <0>         0.1636
     28 C19        -3.6813   -5.3386   -2.8571 C.ar      1 <0>        -0.0938
     29 C20        -4.7705   -6.1807   -2.9669 C.ar      1 <0>        -0.1131
     30 C21        -5.4187   -6.6269   -1.8298 C.ar      1 <0>        -0.1203
     31 C22        -4.9756   -6.2360   -0.5796 C.ar      1 <0>        -0.1128
     32 C23        -3.8840   -5.3980   -0.4630 C.ar      1 <0>        -0.0881
     33 H1          2.8403    0.6201    1.5952 H         1 <0>         0.0871
     34 H2          2.7571    2.3803    1.2467 H         1 <0>         0.0595
     35 H3          3.8021    1.3151    0.2467 H         1 <0>         0.0630
     36 H4          0.7648   -0.6091    0.7330 H         1 <0>         0.1447
     37 H5          2.8076    2.0864   -3.4904 H         1 <0>         0.1521
     38 H6          4.0885    4.0532   -4.2302 H         1 <0>         0.1581
     39 H7          4.1675    6.0728   -2.8254 H         1 <0>         0.1597
     40 H8          1.6650    4.1771    0.0602 H         1 <0>         0.1602
     41 H9          0.2773    2.8457   -3.4624 H         1 <0>         0.0633
     42 H10        -1.3347    2.2641   -2.9239 H         1 <0>         0.0857
     43 H11        -0.2823    1.2008   -3.9182 H         1 <0>         0.0854
     44 H12        -2.1991   -0.0456   -1.7489 H         1 <0>         0.1366
     45 H13        -3.1782   -4.9868   -3.7457 H         1 <0>         0.1164
     46 H14        -5.1191   -6.4873   -3.9420 H         1 <0>         0.1221
     47 H15        -6.2729   -7.2817   -1.9184 H         1 <0>         0.1198
     48 H16        -5.4839   -6.5862    0.3067 H         1 <0>         0.1225
     49 H17        -3.5388   -5.0925    0.5137 H         1 <0>         0.1176
@<TRIPOS>BOND
     1    1    2 1
     2    1   33 1
     3    1   34 1
     4    1   35 1
     5    2    6 1
     6    2    3 2
     7    3    4 1
     8    3   36 1
     9    4    5 2
    10    4   17 1
    11    5    6 1
    12    5   16 1
    13    6    7 1
    14    7   12 ar
    15    7    8 ar
    16    8    9 ar
    17    8   37 1
    18    9   10 ar
    19    9   38 1
    20   10   11 ar
    21   10   39 1
    22   11   12 ar
    23   11   13 1
    24   12   40 1
    25   13   14 2
    26   13   15 1
    27   16   41 1
    28   16   42 1
    29   16   43 1
    30   17   18 2
    31   17   44 1
    32   18   25 1
    33   18   19 1
    34   19   20 1
    35   19   21 2
    36   21   22 1
    37   22   23 2
    38   22   24 1
    39   24   25 am
    40   24   27 1
    41   25   26 2
    42   27   32 ar
    43   27   28 ar
    44   28   29 ar
    45   28   45 1
    46   29   30 ar
    47   29   46 1
    48   30   31 ar
    49   30   47 1
    50   31   32 ar
    51   31   48 1
    52   32   49 1
@<TRIPOS>MOLECULE
ZINC33482217
   45    48     0     0     0
SMALL
USER_CHARGES
(4E,5R)-4-[hydroxy-(3-methoxyphenyl)methylene]-5-(3-nitrophenyl)-1-thiazol-2-yl-pyrrolidine-2,3-dione
@<TRIPOS>ATOM
      1 C1          1.3087   -0.3943    1.7076 C.3       1 <0>         0.0271
      2 O1          1.3263    1.0291    1.8335 O.3       1 <0>        -0.3203
      3 C2          0.6610    1.7406    0.8856 C.ar      1 <0>         0.1084
      4 C3          0.0046    1.0796   -0.1449 C.ar      1 <0>        -0.2035
      5 C4         -0.6699    1.7973   -1.1159 C.ar      1 <0>        -0.0929
      6 C5         -0.7049    3.1751   -1.0623 C.ar      1 <0>        -0.0875
      7 C6         -0.0470    3.8503   -0.0294 C.ar      1 <0>        -0.0413
      8 C7          0.6385    3.1227    0.9477 C.ar      1 <0>        -0.1135
      9 C8         -0.0759    5.3226    0.0285 C.2       1 <0>         0.4068
     10 C9         -1.2779    5.9927   -0.0610 C.2       1 <0>        -0.4959
     11 C10        -1.4791    7.4867   -0.1674 C.3       1 <0>         0.2744
     12 H1         -1.0629    8.0205    0.6997 H         1 <0>         0.0952
     13 N1         -2.9258    7.7111   -0.2390 N.am      1 <0>        -0.4987
     14 C11        -3.5560    6.5262   -0.1773 C.2       1 <0>         0.4779
     15 O2         -4.7606    6.3765   -0.2079 O.2       1 <0>        -0.4825
     16 C12        -2.5632    5.4247   -0.0654 C.2       1 <0>         0.3833
     17 O3         -2.8195    4.2367    0.0093 O.3       1 <0>        -0.4740
     18 C13        -3.5450    8.9485   -0.3468 C.2       1 <0>         0.3254
     19 N2         -2.9971   10.1471   -0.4059 N.2       1 <0>        -0.5459
     20 C14        -3.7378   11.2321   -0.5131 C.2       1 <0>         0.0625
     21 C15        -5.0863   11.0929   -0.5497 C.2       1 <0>        -0.2657
     22 S1         -5.2400    9.3166   -0.4308 S.3       1 <0>         0.1015
     23 C16        -0.8162    8.0091   -1.4159 C.ar      1 <0>        -0.0553
     24 C17        -1.4441    7.8739   -2.6402 C.ar      1 <0>        -0.0554
     25 C18        -0.8383    8.3573   -3.7846 C.ar      1 <0>        -0.1226
     26 C19         0.4002    8.9667   -3.7065 C.ar      1 <0>        -0.0648
     27 C20         1.0302    9.0972   -2.4832 C.ar      1 <0>        -0.0456
     28 C21         0.4219    8.6183   -1.3377 C.ar      1 <0>        -0.0072
     29 N3          2.3565    9.7492   -2.3996 N.pl3     1 <0>         0.0353
     30 O4          2.9118    9.8638   -1.3217 O.2       1 <0>        -0.1571
     31 O5          2.8924   10.1711   -3.4087 O.3       1 <0>        -0.1790
     32 O6          1.0743    6.0153    0.1692 O.2       1 <0>        -0.6128
     33 H2          1.8804   -0.8425    2.5336 H         1 <0>         0.0958
     34 H3          1.7627   -0.6832    0.7482 H         1 <0>         0.0522
     35 H4          0.2694   -0.7528    1.7441 H         1 <0>         0.0529
     36 H5          0.0249    0.0008   -0.1907 H         1 <0>         0.1211
     37 H6         -1.1746    1.2769   -1.9165 H         1 <0>         0.1204
     38 H7         -1.2358    3.7322   -1.8201 H         1 <0>         0.1192
     39 H8          1.1485    3.6375    1.7485 H         1 <0>         0.1304
     40 H9         -3.2815   12.2095   -0.5661 H         1 <0>         0.1686
     41 H10        -5.8551   11.8473   -0.6292 H         1 <0>         0.1942
     42 H11        -2.4096    7.3939   -2.7018 H         1 <0>         0.1261
     43 H12        -1.3305    8.2550   -4.7405 H         1 <0>         0.1406
     44 H13         0.8756    9.3405   -4.6013 H         1 <0>         0.1464
     45 H14         0.9144    8.7200   -0.3819 H         1 <0>         0.1558
@<TRIPOS>BOND
     1    1    2 1
     2    1   33 1
     3    1   34 1
     4    1   35 1
     5    2    3 1
     6    3    8 ar
     7    3    4 ar
     8    4    5 ar
     9    4   36 1
    10    5    6 ar
    11    5   37 1
    12    6    7 ar
    13    6   38 1
    14    7    8 ar
    15    7    9 1
    16    8   39 1
    17    9   10 1
    18    9   32 2
    19   10   16 2
    20   10   11 1
    21   11   12 1
    22   11   13 1
    23   11   23 1
    24   13   14 am
    25   13   18 1
    26   14   15 2
    27   14   16 1
    28   16   17 1
    29   18   22 1
    30   18   19 2
    31   19   20 1
    32   20   21 2
    33   20   40 1
    34   21   22 1
    35   21   41 1
    36   23   28 ar
    37   23   24 ar
    38   24   25 ar
    39   24   42 1
    40   25   26 ar
    41   25   43 1
    42   26   27 ar
    43   26   44 1
    44   27   28 ar
    45   27   29 1
    46   28   45 1
    47   29   30 2
    48   29   31 1
@<TRIPOS>MOLECULE
ZINC39680489
   57    60     0     0     0
SMALL
USER_CHARGES

@<TRIPOS>ATOM
      1 C1         -1.3465    0.2339   -3.3178 C.3       1 <0>        -0.1469
      2 C2         -0.9948   -1.0927   -2.6416 C.3       1 <0>        -0.1116
      3 H1         -0.0941   -1.5052   -3.0961 H         1 <0>         0.0779
      4 C3         -2.1526   -2.0781   -2.8170 C.3       1 <0>        -0.1053
      5 C4         -1.7886   -3.4161   -2.1694 C.3       1 <0>        -0.1117
      6 H2         -0.8802   -3.8069   -2.6278 H         1 <0>         0.0792
      7 C5         -1.5551   -3.2063   -0.6700 C.3       1 <0>         0.1250
      8 N1         -0.5448   -2.1547   -0.4912 N.pl3     1 <0>        -0.9952
      9 C6         -0.7516   -0.8565   -1.1477 C.3       1 <0>         0.1240
     10 S1          0.8022   -2.4270    0.4328 S.o2      1 <0>         2.6925
     11 O1          1.2596   -1.1544    0.8691 O.2       1 <0>        -0.9510
     12 O2          0.4686   -3.4687    1.3399 O.2       1 <0>        -0.9538
     13 C7          2.0463   -3.0698   -0.6367 C.ar      1 <0>        -0.6879
     14 C8          2.1493   -4.4357   -0.8334 C.ar      1 <0>         0.0039
     15 C9          3.1232   -4.9486   -1.6714 C.ar      1 <0>        -0.1375
     16 C10         3.9987   -4.1000   -2.3172 C.ar      1 <0>        -0.0326
     17 C11         3.9001   -2.7213   -2.1235 C.ar      1 <0>        -0.1496
     18 C12         2.9119   -2.2100   -1.2803 C.ar      1 <0>         0.0378
     19 C13         4.8346   -1.8062   -2.8122 C.2       1 <0>         0.5630
     20 O3          5.1578   -0.7588   -2.2865 O.2       1 <0>        -0.5148
     21 N2          5.3285   -2.1331   -4.0228 N.am      1 <0>        -0.5450
     22 C14         4.8445   -3.3203   -4.7482 C.3       1 <0>         0.0774
     23 C15         4.6827   -2.9281   -6.2237 C.3       1 <0>         0.0115
     24 H3          3.9434   -2.1318   -6.3111 H         1 <0>         0.0722
     25 O4          5.9425   -2.4687   -6.7193 O.3       1 <0>        -0.2775
     26 C16         6.6096   -1.5382   -5.9871 C.ar      1 <0>         0.1092
     27 C17         6.3185   -1.3502   -4.6395 C.ar      1 <0>         0.0659
     28 C18         7.0063   -0.3964   -3.9068 C.ar      1 <0>        -0.1112
     29 C19         7.9781    0.3739   -4.5192 C.ar      1 <0>        -0.1459
     30 C20         8.2624    0.1927   -5.8598 C.ar      1 <0>        -0.1031
     31 C21         7.5888   -0.7635   -6.5902 C.ar      1 <0>        -0.1375
     32 C22         4.2308   -4.1262   -7.0182 C.2       1 <0>         0.5119
     33 O5          3.1374   -4.6218   -6.8052 O.co2     1 <0>        -0.6762
     34 O6          4.9585   -4.6000   -7.8740 O.co2     1 <0>        -0.6577
     35 C23        -2.9329   -4.4108   -2.3745 C.3       1 <0>        -0.1460
     36 H4         -0.5221    0.9357   -3.1916 H         1 <0>         0.0583
     37 H5         -1.5206    0.0652   -4.3805 H         1 <0>         0.0607
     38 H6         -2.2473    0.6460   -2.8630 H         1 <0>         0.0565
     39 H7         -3.0470   -1.6758   -2.3413 H         1 <0>         0.0643
     40 H8         -2.3433   -2.2289   -3.8795 H         1 <0>         0.0680
     41 H9         -2.4874   -2.9020   -0.1941 H         1 <0>         0.0764
     42 H10        -1.1998   -4.1343   -0.2221 H         1 <0>         0.0903
     43 H11         0.1336   -0.2344   -1.0155 H         1 <0>         0.0907
     44 H12        -1.6180   -0.3604   -0.7104 H         1 <0>         0.0772
     45 H13         1.4665   -5.1043   -0.3303 H         1 <0>         0.1447
     46 H14         3.1987   -6.0156   -1.8201 H         1 <0>         0.1447
     47 H15         4.7588   -4.5017   -2.9709 H         1 <0>         0.1457
     48 H16         2.8276   -1.1440   -1.1294 H         1 <0>         0.1489
     49 H17         5.5690   -4.1297   -4.6579 H         1 <0>         0.0891
     50 H18         3.8836   -3.6358   -4.3418 H         1 <0>         0.1151
     51 H19         6.7843   -0.2550   -2.8594 H         1 <0>         0.1594
     52 H20         8.5150    1.1179   -3.9495 H         1 <0>         0.1230
     53 H21         9.0209    0.7972   -6.3349 H         1 <0>         0.1251
     54 H22         7.8161   -0.9000   -7.6371 H         1 <0>         0.1337
     55 H23        -3.0999   -4.5574   -3.4416 H         1 <0>         0.0608
     56 H24        -2.6731   -5.3635   -1.9131 H         1 <0>         0.0580
     57 H25        -3.8407   -4.0200   -1.9149 H         1 <0>         0.0559
@<TRIPOS>BOND
     1    1    2 1
     2    1   36 1
     3    1   37 1
     4    1   38 1
     5    2    3 1
     6    2    9 1
     7    2    4 1
     8    4    5 1
     9    4   39 1
    10    4   40 1
    11    5    6 1
    12    5    7 1
    13    5   35 1
    14    7    8 1
    15    7   41 1
    16    7   42 1
    17    8    9 1
    18    8   10 1
    19    9   43 1
    20    9   44 1
    21   10   11 2
    22   10   12 2
    23   10   13 1
    24   13   18 ar
    25   13   14 ar
    26   14   15 ar
    27   14   45 1
    28   15   16 ar
    29   15   46 1
    30   16   17 ar
    31   16   47 1
    32   17   18 ar
    33   17   19 1
    34   18   48 1
    35   19   20 2
    36   19   21 am
    37   21   27 1
    38   21   22 1
    39   22   23 1
    40   22   49 1
    41   22   50 1
    42   23   24 1
    43   23   25 1
    44   23   32 1
    45   25   26 1
    46   26   31 ar
    47   26   27 ar
    48   27   28 ar
    49   28   29 ar
    50   28   51 1
    51   29   30 ar
    52   29   52 1
    53   30   31 ar
    54   30   53 1
    55   31   54 1
    56   32   33 2
    57   32   34 1
    58   35   55 1
    59   35   56 1
    60   35   57 1
@<TRIPOS>MOLECULE
ZINC13949151
   48    51     0     0     0
SMALL
USER_CHARGES

@<TRIPOS>ATOM
      1 C1         -0.0187    1.5258    0.0104 C.3       1 <0>        -0.1462
      2 C2          0.0021   -0.0041    0.0020 C.3       1 <0>        -0.1053
      3 H1         -1.0203   -0.3818    0.0098 H         1 <0>         0.0742
      4 C3          0.7197   -0.4983   -1.2561 C.3       1 <0>        -0.1117
      5 C4          0.7122   -2.0284   -1.2819 C.3       1 <0>        -0.1319
      6 C5          1.4632   -2.5595   -0.0568 C.3       1 <0>         0.1184
      7 N1          0.8694   -1.9734    1.1526 N.pl3     1 <0>        -1.0023
      8 C6          0.7443   -0.5122    1.2421 C.3       1 <0>         0.1224
      9 S1          0.3501   -2.9415    2.3917 S.o2      1 <0>         2.6964
     10 O1         -0.6301   -2.1990    3.1038 O.2       1 <0>        -0.9745
     11 O2          0.0773   -4.2157    1.8248 O.2       1 <0>        -0.9745
     12 C7          1.7118   -3.1594    3.4884 C.ar      1 <0>        -0.7727
     13 C8          2.5886   -4.2118    3.2989 C.ar      1 <0>         0.0127
     14 C9          3.6570   -4.3855    4.1567 C.ar      1 <0>        -0.1945
     15 C10         3.8503   -3.5016    5.2106 C.ar      1 <0>         0.3285
     16 C11         2.9677   -2.4454    5.3981 C.ar      1 <0>        -0.2791
     17 C12         1.9046   -2.2743    4.5333 C.ar      1 <0>         0.0318
     18 N2          4.9296   -3.6745    6.0803 N.2       1 <0>        -1.0683
     19 S2          5.1583   -2.6196    7.3361 S.o2      1 <0>         2.6077
     20 O3          5.4722   -1.3606    6.7569 O.2       1 <0>        -1.0226
     21 O4          4.0615   -2.7985    8.2217 O.2       1 <0>        -1.0048
     22 C13         6.5978   -3.1475    8.2043 C.ar      1 <0>        -0.5721
     23 C14         7.6963   -2.3571    8.2346 C.ar      1 <0>         0.0102
     24 C15         8.8530   -2.7425    8.9123 C.ar      1 <0>        -0.1128
     25 C16         8.9277   -3.9239    9.5687 C.ar      1 <0>        -0.0322
     26 C17         7.8129   -4.8053    9.5800 C.ar      1 <0>         0.0547
     27 C18         6.6014   -4.3997    8.8764 C.ar      1 <0>         0.1309
     28 N3          5.6209   -5.3001    8.9588 N.2       1 <0>        -0.4656
     29 S3          6.2119   -6.5059    9.8448 S.3       1 <0>         0.6216
     30 N4          7.7039   -5.9978   10.1673 N.2       1 <0>        -0.5075
     31 H2          1.0039    1.9031    0.0027 H         1 <0>         0.0567
     32 H3         -0.5459    1.8868   -0.8726 H         1 <0>         0.0555
     33 H4         -0.5289    1.8773    0.9072 H         1 <0>         0.0582
     34 H5          0.2072   -0.1177   -2.1396 H         1 <0>         0.0612
     35 H6          1.7492   -0.1402   -1.2513 H         1 <0>         0.0642
     36 H7         -0.3167   -2.3876   -1.2618 H         1 <0>         0.0661
     37 H8          1.2029   -2.3794   -2.1897 H         1 <0>         0.0724
     38 H9          1.3762   -3.6453   -0.0173 H         1 <0>         0.0924
     39 H10         2.5140   -2.2771   -0.1216 H         1 <0>         0.0681
     40 H11         1.7365   -0.0628    1.2837 H         1 <0>         0.0688
     41 H12         0.1830   -0.2472    2.1380 H         1 <0>         0.0924
     42 H13         2.4375   -4.8989    2.4795 H         1 <0>         0.1208
     43 H14         4.3412   -5.2079    4.0083 H         1 <0>         0.1204
     44 H15         3.1149   -1.7566    6.2167 H         1 <0>         0.1047
     45 H16         1.2205   -1.4508    4.6758 H         1 <0>         0.1184
     46 H17         7.6768   -1.4067    7.7222 H         1 <0>         0.1565
     47 H18         9.7086   -2.0835    8.9128 H         1 <0>         0.1470
     48 H19         9.8362   -4.1974   10.0846 H         1 <0>         0.1453
@<TRIPOS>BOND
     1    1    2 1
     2    1   31 1
     3    1   32 1
     4    1   33 1
     5    2    3 1
     6    2    8 1
     7    2    4 1
     8    4    5 1
     9    4   34 1
    10    4   35 1
    11    5    6 1
    12    5   36 1
    13    5   37 1
    14    6    7 1
    15    6   38 1
    16    6   39 1
    17    7    8 1
    18    7    9 1
    19    8   40 1
    20    8   41 1
    21    9   10 2
    22    9   11 2
    23    9   12 1
    24   12   17 ar
    25   12   13 ar
    26   13   14 ar
    27   13   42 1
    28   14   15 ar
    29   14   43 1
    30   15   16 ar
    31   15   18 1
    32   16   17 ar
    33   16   44 1
    34   17   45 1
    35   18   19 1
    36   19   20 2
    37   19   21 2
    38   19   22 1
    39   22   27 ar
    40   22   23 ar
    41   23   24 ar
    42   23   46 1
    43   24   25 ar
    44   24   47 1
    45   25   26 ar
    46   25   48 1
    47   26   30 2
    48   26   27 ar
    49   27   28 2
    50   28   29 1
    51   29   30 1
@<TRIPOS>MOLECULE
ZINC20189488
   56    60     0     0     0
SMALL
USER_CHARGES

@<TRIPOS>ATOM
      1 C1         -0.1333    1.6266   -0.0189 C.3       1 <0>         0.0932
      2 N1         -0.0793    0.1631   -0.0545 N.pl3     1 <0>        -0.6338
      3 C2          1.2150   -0.5212   -0.1052 C.3       1 <0>         0.0921
      4 C3         -1.2620   -0.5800   -0.0401 C.ar      1 <0>         0.2337
      5 C4         -1.2125   -1.9679   -0.0680 C.ar      1 <0>        -0.1978
      6 C5         -2.3837   -2.6995   -0.0532 C.ar      1 <0>        -0.0332
      7 C6         -3.6048   -2.0519   -0.0111 C.ar      1 <0>        -0.1932
      8 C7         -3.6577   -0.6703    0.0167 C.ar      1 <0>        -0.0431
      9 C8         -2.4902    0.0673    0.0079 C.ar      1 <0>        -0.1954
     10 C9         -4.8808   -2.8536    0.0039 C.3       1 <0>         0.2179
     11 H1         -4.7084   -3.8588   -0.3806 H         1 <0>         0.1206
     12 C10        -5.4778   -2.9068    1.4288 C.3       1 <0>        -0.1577
     13 H2         -5.9034   -3.8795    1.6755 H         1 <0>         0.1528
     14 C11        -6.5279   -1.7628    1.4241 C.3       1 <0>         0.0359
     15 H3         -7.5315   -2.1114    1.6680 H         1 <0>         0.1406
     16 C12        -5.9853   -0.7899    2.4483 C.2       1 <0>         0.5310
     17 O1         -6.5173    0.2477    2.7794 O.2       1 <0>        -0.4456
     18 N2         -4.8272   -1.2537    2.9319 N.am      1 <0>        -0.5126
     19 C13        -4.4379   -2.4486    2.4249 C.2       1 <0>         0.5484
     20 O2         -3.4280   -3.0543    2.7122 O.2       1 <0>        -0.4384
     21 C14        -4.0786   -0.5652    3.8898 C.ar      1 <0>         0.0888
     22 C15        -3.4862    0.6507    3.5646 C.ar      1 <0>        -0.1061
     23 C16        -2.7479    1.3322    4.5053 C.ar      1 <0>        -0.0769
     24 C17        -2.5938    0.8005    5.7900 C.ar      1 <0>        -0.1146
     25 C18        -3.1912   -0.4224    6.1129 C.ar      1 <0>        -0.0774
     26 C19        -3.9326   -1.0947    5.1679 C.ar      1 <0>        -0.1146
     27 C20        -1.8042    1.5261    6.7997 C.2       1 <0>         0.5192
     28 O3         -1.2822    2.5953    6.5154 O.co2     1 <0>        -0.6835
     29 O4         -1.6705    1.0596    7.9226 O.co2     1 <0>        -0.6833
     30 O5         -6.4519   -1.1731    0.1130 O.3       1 <0>        -0.1228
     31 N3         -5.9417   -2.1680   -0.7737 N.pl3     1 <0>        -0.4960
     32 C21        -6.3583   -2.4432   -2.0782 C.ar      1 <0>         0.2528
     33 C22        -5.7603   -3.4698   -2.7979 C.ar      1 <0>        -0.1836
     34 C23        -6.1749   -3.7396   -4.0873 C.ar      1 <0>        -0.0713
     35 C24        -7.1840   -2.9888   -4.6622 C.ar      1 <0>        -0.1740
     36 C25        -7.7815   -1.9661   -3.9484 C.ar      1 <0>        -0.0737
     37 C26        -7.3755   -1.6947   -2.6566 C.ar      1 <0>        -0.1786
     38 H4          0.8799    2.0281   -0.0367 H         1 <0>         0.0738
     39 H5         -0.6838    1.9911   -0.8861 H         1 <0>         0.0530
     40 H6         -0.6361    1.9496    0.8927 H         1 <0>         0.0595
     41 H7          1.5636   -0.7149    0.9093 H         1 <0>         0.0509
     42 H8          1.1062   -1.4656   -0.6384 H         1 <0>         0.0675
     43 H9          1.9384    0.1077   -0.6240 H         1 <0>         0.0661
     44 H10        -0.2591   -2.4743   -0.1016 H         1 <0>         0.1234
     45 H11        -2.3459   -3.7786   -0.0749 H         1 <0>         0.1215
     46 H12        -4.6131   -0.1677    0.0496 H         1 <0>         0.1252
     47 H13        -2.5321    1.1461    0.0343 H         1 <0>         0.1207
     48 H14        -3.6054    1.0603    2.5724 H         1 <0>         0.1158
     49 H15        -2.2880    2.2760    4.2519 H         1 <0>         0.1335
     50 H16        -3.0743   -0.8365    7.1034 H         1 <0>         0.1355
     51 H17        -4.3978   -2.0368    5.4177 H         1 <0>         0.1172
     52 H18        -4.9717   -4.0561   -2.3499 H         1 <0>         0.1234
     53 H19        -5.7104   -4.5376   -4.6475 H         1 <0>         0.1248
     54 H20        -7.5059   -3.2014   -5.6709 H         1 <0>         0.1192
     55 H21        -8.5692   -1.3816   -4.4003 H         1 <0>         0.1227
     56 H22        -7.8457   -0.8988   -2.0981 H         1 <0>         0.1263
@<TRIPOS>BOND
     1    1    2 1
     2    1   38 1
     3    1   39 1
     4    1   40 1
     5    2    3 1
     6    2    4 1
     7    3   41 1
     8    3   42 1
     9    3   43 1
    10    4    9 ar
    11    4    5 ar
    12    5    6 ar
    13    5   44 1
    14    6    7 ar
    15    6   45 1
    16    7    8 ar
    17    7   10 1
    18    8    9 ar
    19    8   46 1
    20    9   47 1
    21   10   11 1
    22   10   31 1
    23   10   12 1
    24   12   13 1
    25   12   19 1
    26   12   14 1
    27   14   15 1
    28   14   16 1
    29   14   30 1
    30   16   17 2
    31   16   18 am
    32   18   19 am
    33   18   21 1
    34   19   20 2
    35   21   26 ar
    36   21   22 ar
    37   22   23 ar
    38   22   48 1
    39   23   24 ar
    40   23   49 1
    41   24   25 ar
    42   24   27 1
    43   25   26 ar
    44   25   50 1
    45   26   51 1
    46   27   28 2
    47   27   29 1
    48   30   31 1
    49   31   32 1
    50   32   37 ar
    51   32   33 ar
    52   33   34 ar
    53   33   52 1
    54   34   35 ar
    55   34   53 1
    56   35   36 ar
    57   35   54 1
    58   36   37 ar
    59   36   55 1
    60   37   56 1
@<TRIPOS>MOLECULE
ZINC13266126
   47    50     0     0     0
SMALL
USER_CHARGES
2-[2-[(2-fluorophenyl)amino]-2-oxo-ethyl]sulfanyl-4-oxo-3-phenyl-quinazoline-7-carboxylic acid
@<TRIPOS>ATOM
      1 C1          0.0110    0.0059    0.1566 C.ar      1 <0>        -0.1061
      2 C2          0.3147    0.8738    1.1894 C.ar      1 <0>        -0.1074
      3 C3          1.5005    1.5817    1.1724 C.ar      1 <0>        -0.0988
      4 C4          2.3880    1.4214    0.1165 C.ar      1 <0>         0.1026
      5 C5          2.0803    0.5487   -0.9189 C.ar      1 <0>        -0.0866
      6 C6          0.8931   -0.1566   -0.8958 C.ar      1 <0>        -0.1095
      7 N1          3.5914    2.1378    0.0963 N.am      1 <0>        -0.4879
      8 C7          4.7677    1.4771    0.1978 C.2       1 <0>         0.5580
      9 O1          4.8029    0.2654    0.3078 O.2       1 <0>        -0.5020
     10 C8          6.0026    2.2762    0.1709 C.ar      1 <0>        -0.1927
     11 C9          7.2608    1.6827    0.2698 C.ar      1 <0>        -0.0617
     12 C10         8.3834    2.4591    0.2417 C.ar      1 <0>        -0.0848
     13 C11         8.2851    3.8508    0.1133 C.ar      1 <0>        -0.0655
     14 C12         7.0421    4.4631    0.0132 C.ar      1 <0>        -0.0711
     15 C13         5.8856    3.6787    0.0412 C.ar      1 <0>         0.1356
     16 N2          4.6538    4.2326   -0.0528 N.2       1 <0>        -0.5079
     17 C14         3.5685    3.4992   -0.0316 C.2       1 <0>         0.3364
     18 S1          2.0072    4.3045   -0.1666 S.3       1 <0>         0.0770
     19 C15         2.5519    6.0249   -0.3062 C.3       1 <0>        -0.1556
     20 C16         1.3492    6.9237   -0.4361 C.2       1 <0>         0.5393
     21 O2          0.2336    6.4479   -0.4345 O.2       1 <0>        -0.5040
     22 N3          1.5134    8.2562   -0.5541 N.am      1 <0>        -0.6659
     23 C17         0.3972    9.1021   -0.5527 C.ar      1 <0>         0.1188
     24 C18        -0.7156    8.7841    0.2138 C.ar      1 <0>        -0.0941
     25 C19        -1.8130    9.6233    0.2178 C.ar      1 <0>        -0.1091
     26 C20        -1.8093   10.7738   -0.5493 C.ar      1 <0>        -0.1060
     27 C21        -0.7056   11.0920   -1.3189 C.ar      1 <0>        -0.1352
     28 C22         0.3989   10.2594   -1.3233 C.ar      1 <0>         0.0738
     29 F1          1.4773   10.5699   -2.0756 F         1 <0>        -0.1350
     30 C23         9.5138    4.6743    0.0844 C.2       1 <0>         0.4879
     31 O3          9.4336    5.8810   -0.0264 O.co2     1 <0>        -0.6209
     32 H1         -0.9169   -0.5465    0.1722 H         1 <0>         0.1288
     33 H2         -0.3781    1.0017    2.0080 H         1 <0>         0.1325
     34 H3          1.7370    2.2597    1.9791 H         1 <0>         0.1312
     35 H4          2.7689    0.4213   -1.7411 H         1 <0>         0.1261
     36 H5          0.6533   -0.8355   -1.7008 H         1 <0>         0.1311
     37 H6          7.3469    0.6107    0.3691 H         1 <0>         0.1349
     38 H7          9.3562    1.9963    0.3186 H         1 <0>         0.1445
     39 H8          6.9700    5.5362   -0.0850 H         1 <0>         0.1456
     40 H9          3.1169    6.3005    0.5843 H         1 <0>         0.1374
     41 H10         3.1848    6.1354   -1.1867 H         1 <0>         0.1356
     42 H11         2.4046    8.6294   -0.6401 H         1 <0>         0.4202
     43 H12        -0.7217    7.8836    0.8100 H         1 <0>         0.1449
     44 H13        -2.6771    9.3779    0.8174 H         1 <0>         0.1343
     45 H14        -2.6708   11.4251   -0.5476 H         1 <0>         0.1344
     46 H15        -0.7060   11.9911   -1.9172 H         1 <0>         0.1399
     47 O4         10.7214    4.0857    0.1811 O.co2     1 <0>        -0.7427
@<TRIPOS>BOND
     1    1    6 ar
     2    1    2 ar
     3    1   32 1
     4    2    3 ar
     5    2   33 1
     6    3    4 ar
     7    3   34 1
     8    4    5 ar
     9    4    7 1
    10    5    6 ar
    11    5   35 1
    12    6   36 1
    13    7   17 1
    14    7    8 am
    15    8    9 2
    16    8   10 1
    17   10   15 ar
    18   10   11 ar
    19   11   12 ar
    20   11   37 1
    21   12   13 ar
    22   12   38 1
    23   13   14 ar
    24   13   30 1
    25   14   15 ar
    26   14   39 1
    27   15   16 1
    28   16   17 2
    29   17   18 1
    30   18   19 1
    31   19   20 1
    32   19   40 1
    33   19   41 1
    34   20   21 2
    35   20   22 am
    36   22   23 1
    37   22   42 1
    38   23   28 ar
    39   23   24 ar
    40   24   25 ar
    41   24   43 1
    42   25   26 ar
    43   25   44 1
    44   26   27 ar
    45   26   45 1
    46   27   28 ar
    47   27   46 1
    48   28   29 1
    49   30   31 2
    50   30   47 1
@<TRIPOS>MOLECULE
ZINC25407908
   56    58     0     0     0
SMALL
USER_CHARGES
2-[3-(4-chlorophenyl)-5-thioxo-1H-1,2,4-triazol-4-yl]-N-[2-[(2S,6S)-2,6-dimethylmorpholin-4-yl]-2-methyl-propyl]acetamide
@<TRIPOS>ATOM
      1 C1         -2.2294    4.1365    0.0479 C.3       1 <0>        -0.1752
      2 C2         -2.3087    2.6480    0.3927 C.3       1 <0>         0.0943
      3 H1         -3.3302    2.3627    0.6844 H         1 <0>         0.1029
      4 C3         -1.8164    1.8205   -0.7976 C.3       1 <0>         0.0193
      5 N1         -0.4012    2.1279   -1.0508 N.3       1 <0>        -0.5164
      6 C4          0.4153    1.8378    0.1368 C.3       1 <0>         0.0206
      7 C5         -0.0986    2.6659    1.3175 C.3       1 <0>         0.0826
      8 H2         -0.0425    3.7439    1.1061 H         1 <0>         0.0711
      9 O1         -1.4833    2.3772    1.5289 O.3       1 <0>        -0.3871
     10 C6          0.6955    2.3092    2.5757 C.3       1 <0>        -0.1445
     11 C7          0.0952    1.3947   -2.2229 C.3       1 <0>         0.0969
     12 C8          1.5453    1.7967   -2.4994 C.3       1 <0>        -0.1409
     13 C9          0.0259   -0.1093   -1.9507 C.3       1 <0>        -0.1814
     14 C10        -0.7686    1.7330   -3.4396 C.3       1 <0>         0.1388
     15 N2         -0.8093    3.1862   -3.6207 N.am      1 <0>        -0.7295
     16 C11        -1.5858    3.7241   -4.5821 C.2       1 <0>         0.5039
     17 O2         -2.2509    3.0050   -5.2973 O.2       1 <0>        -0.5170
     18 C12        -1.6276    5.2189   -4.7684 C.3       1 <0>         0.0898
     19 N3         -2.5379    5.5487   -5.8678 N.pl3     1 <0>        -0.4826
     20 C13        -2.1777    5.7367   -7.1876 C.2       1 <0>         0.1972
     21 N4         -3.2506    6.0123   -7.8748 N.2       1 <0>        -0.3013
     22 N5         -4.3410    6.0158   -6.9942 N.2       1 <0>        -0.3778
     23 C14        -3.8699    5.7265   -5.7638 C.2       1 <0>         0.4045
     24 S1         -4.7965    5.6074   -4.3291 S.3       1 <0>        -0.7653
     25 C15        -0.8050    5.6382   -7.7312 C.ar      1 <0>         0.0211
     26 C16        -0.4723    6.2952   -8.9162 C.ar      1 <0>        -0.0749
     27 C17         0.8104    6.2041   -9.4155 C.ar      1 <0>        -0.1052
     28 C18         1.7640    5.4534   -8.7488 C.ar      1 <0>        -0.0383
     29 C19         1.4380    4.7949   -7.5751 C.ar      1 <0>        -0.1038
     30 C20         0.1599    4.8832   -7.0637 C.ar      1 <0>        -0.1087
     31 Cl1         3.3742    5.3369   -9.3871 Cl        1 <0>        -0.0778
     32 H3         -2.8642    4.3448   -0.8260 H         1 <0>         0.0755
     33 H4         -1.1879    4.4043   -0.1833 H         1 <0>         0.0696
     34 H5         -2.5791    4.7306    0.9051 H         1 <0>         0.0549
     35 H6         -1.9257    0.7499   -0.5701 H         1 <0>         0.0430
     36 H7         -2.4123    2.0688   -1.6883 H         1 <0>         0.0960
     37 H8          0.3434    0.7671    0.3785 H         1 <0>         0.0453
     38 H9          1.4645    2.0980   -0.0670 H         1 <0>         0.0875
     39 H10         0.3258    2.9045    3.4236 H         1 <0>         0.0648
     40 H11         1.7609    2.5278    2.4111 H         1 <0>         0.0700
     41 H12         0.5706    1.2389    2.7969 H         1 <0>         0.0605
     42 H13         1.9170    1.2476   -3.3771 H         1 <0>         0.0636
     43 H14         2.1664    1.5535   -1.6247 H         1 <0>         0.0594
     44 H15         1.5951    2.8780   -2.6952 H         1 <0>         0.0668
     45 H16         0.3976   -0.6583   -2.8284 H         1 <0>         0.0658
     46 H17        -1.0167   -0.3983   -1.7520 H         1 <0>         0.0616
     47 H18         0.6469   -0.3526   -1.0760 H         1 <0>         0.0632
     48 H19        -0.3384    1.2636   -4.3366 H         1 <0>         0.0662
     49 H20        -1.7892    1.3545   -3.2814 H         1 <0>         0.0670
     50 H21        -0.2061    3.8384   -2.9720 H         1 <0>         0.4237
     51 H22        -1.9837    5.6940   -3.8424 H         1 <0>         0.1270
     52 H23        -0.6185    5.5873   -5.0048 H         1 <0>         0.1080
     53 H24        -1.2166    6.8770   -9.4395 H         1 <0>         0.1440
     54 H25         1.0702    6.7156  -10.3305 H         1 <0>         0.1371
     55 H26         2.1858    4.2108   -7.0593 H         1 <0>         0.1341
     56 H27        -0.0935    4.3686   -6.1486 H         1 <0>         0.1303
@<TRIPOS>BOND
     1    1    2 1
     2    1   32 1
     3    1   33 1
     4    1   34 1
     5    2    3 1
     6    2    9 1
     7    2    4 1
     8    4    5 1
     9    4   35 1
    10    4   36 1
    11    5    6 1
    12    5   11 1
    13    6    7 1
    14    6   37 1
    15    6   38 1
    16    7    8 1
    17    7    9 1
    18    7   10 1
    19   10   39 1
    20   10   40 1
    21   10   41 1
    22   11   12 1
    23   11   13 1
    24   11   14 1
    25   12   42 1
    26   12   43 1
    27   12   44 1
    28   13   45 1
    29   13   46 1
    30   13   47 1
    31   14   15 1
    32   14   48 1
    33   14   49 1
    34   15   16 am
    35   15   50 1
    36   16   17 2
    37   16   18 1
    38   18   19 1
    39   18   51 1
    40   18   52 1
    41   19   23 1
    42   19   20 1
    43   20   21 2
    44   20   25 1
    45   21   22 1
    46   22   23 2
    47   23   24 1
    48   25   30 ar
    49   25   26 ar
    50   26   27 ar
    51   26   53 1
    52   27   28 ar
    53   27   54 1
    54   28   29 ar
    55   28   31 1
    56   29   30 ar
    57   29   55 1
    58   30   56 1
@<TRIPOS>MOLECULE
ZINC09344920
   62    65     0     0     0
SMALL
USER_CHARGES

@<TRIPOS>ATOM
      1 C1         -0.4735    1.4600   -0.0082 C.3       1 <0>        -0.1038
      2 C2         -0.2134   -0.0244   -0.0068 C.ar      1 <0>        -0.1299
      3 C3          0.0086   -0.6931   -1.2000 C.ar      1 <0>         0.1833
      4 C4          0.2501   -2.0653   -1.2085 C.ar      1 <0>        -0.2232
      5 C5          0.2710   -2.7714   -0.0403 C.ar      1 <0>        -0.0225
      6 C6          0.0489   -2.1113    1.1736 C.ar      1 <0>        -0.1849
      7 C7         -0.1896   -0.7258    1.1887 C.ar      1 <0>         0.1797
      8 O1         -0.3993   -0.0977    2.3651 O.3       1 <0>        -0.2636
      9 C8         -0.3675   -0.7649    3.5263 C.2       1 <0>         0.5128
     10 O2         -0.5511   -0.1524    4.5629 O.2       1 <0>        -0.4632
     11 C9         -0.1275   -2.1602    3.5879 C.2       1 <0>        -0.2200
     12 C10         0.0659   -2.8503    2.4430 C.2       1 <0>         0.0389
     13 C11         0.3083   -4.3336    2.4070 C.3       1 <0>        -0.0928
     14 C12         0.7151   -4.8467    3.7875 C.3       1 <0>        -0.1220
     15 C13        -0.3028   -4.3304    4.8117 C.3       1 <0>        -0.1215
     16 C14        -0.1061   -2.8144    4.9439 C.3       1 <0>        -0.0591
     17 O3         -0.0097   -0.0057   -2.3704 O.3       1 <0>        -0.2701
     18 C15         0.1061   -0.7690   -3.5730 C.3       1 <0>         0.0631
     19 H1         -0.4056   -1.7233   -3.4483 H         1 <0>         0.1034
     20 C16         1.5844   -1.0190   -3.8781 C.3       1 <0>        -0.1781
     21 C17        -0.5204   -0.0082   -4.7131 C.2       1 <0>         0.5162
     22 O4         -0.9357    1.1173   -4.5353 O.2       1 <0>        -0.5161
     23 N1         -0.6192   -0.5786   -5.9302 N.am      1 <0>        -0.7190
     24 C18        -1.2283    0.1610   -7.0385 C.3       1 <0>         0.1252
     25 C19        -1.2162   -0.7070   -8.2984 C.3       1 <0>        -0.0970
     26 C20        -2.1131   -1.9280   -8.0852 C.3       1 <0>        -0.1122
     27 C21        -2.1010   -2.7959   -9.3452 C.3       1 <0>        -0.0941
     28 C22        -2.6220   -1.9811  -10.5308 C.3       1 <0>        -0.1535
     29 C23        -1.7250   -0.7601  -10.7439 C.3       1 <0>        -0.0951
     30 C24        -1.7372    0.1078   -9.4840 C.3       1 <0>        -0.1071
     31 C25        -2.6101   -2.8360  -11.7718 C.2       1 <0>         0.4949
     32 O5         -3.5318   -2.7690  -12.5671 O.co2     1 <0>        -0.7045
     33 O6         -1.6787   -3.5946  -11.9805 O.co2     1 <0>        -0.6995
     34 H2          0.4727    1.9947    0.0751 H         1 <0>         0.0731
     35 H3         -0.9691    1.7412   -0.9374 H         1 <0>         0.0812
     36 H4         -1.1122    1.7178    0.8366 H         1 <0>         0.0717
     37 H5          0.4215   -2.5739   -2.1457 H         1 <0>         0.1441
     38 H6          0.4578   -3.8350   -0.0529 H         1 <0>         0.1436
     39 H7         -0.6040   -4.8392    2.0905 H         1 <0>         0.0946
     40 H8          1.1041   -4.5504    1.6944 H         1 <0>         0.0897
     41 H9          0.7170   -5.9367    3.7885 H         1 <0>         0.0756
     42 H10         1.7092   -4.4767    4.0387 H         1 <0>         0.0701
     43 H11        -1.3133   -4.5561    4.4710 H         1 <0>         0.0697
     44 H12        -0.1256   -4.8049    5.7769 H         1 <0>         0.0745
     45 H13         0.8463   -2.6025    5.4299 H         1 <0>         0.0811
     46 H14        -0.9161   -2.4098    5.5508 H         1 <0>         0.0820
     47 H15         2.0375   -1.5692   -3.0534 H         1 <0>         0.0774
     48 H16         1.6727   -1.6012   -4.7953 H         1 <0>         0.0844
     49 H17         2.0961   -0.0647   -4.0027 H         1 <0>         0.0782
     50 H18        -0.2871   -1.4788   -6.0723 H         1 <0>         0.4024
     51 H19        -2.2567    0.4164   -6.7831 H         1 <0>         0.0704
     52 H20        -0.6617    1.0741   -7.2208 H         1 <0>         0.0695
     53 H21        -0.1974   -1.0359   -8.5033 H         1 <0>         0.0774
     54 H22        -1.7420   -2.5085   -7.2406 H         1 <0>         0.0511
     55 H23        -3.1319   -1.5991   -7.8804 H         1 <0>         0.0593
     56 H24        -1.0822   -3.1248   -9.5500 H         1 <0>         0.0661
     57 H25        -2.7400   -3.6658   -9.1933 H         1 <0>         0.0520
     58 H26        -3.6408   -1.6522  -10.3259 H         1 <0>         0.0581
     59 H27        -0.7062   -1.0890  -10.9488 H         1 <0>         0.0603
     60 H28        -2.0962   -0.1796  -11.5886 H         1 <0>         0.0576
     61 H29        -2.7560    0.4367   -9.2791 H         1 <0>         0.0618
     62 H30        -1.0981    0.9777   -9.6359 H         1 <0>         0.0586
@<TRIPOS>BOND
     1    1    2 1
     2    1   34 1
     3    1   35 1
     4    1   36 1
     5    2    7 ar
     6    2    3 ar
     7    3    4 ar
     8    3   17 1
     9    4    5 ar
    10    4   37 1
    11    5    6 ar
    12    5   38 1
    13    6   12 1
    14    6    7 ar
    15    7    8 1
    16    8    9 1
    17    9   10 2
    18    9   11 1
    19   11   16 1
    20   11   12 2
    21   12   13 1
    22   13   14 1
    23   13   39 1
    24   13   40 1
    25   14   15 1
    26   14   41 1
    27   14   42 1
    28   15   16 1
    29   15   43 1
    30   15   44 1
    31   16   45 1
    32   16   46 1
    33   17   18 1
    34   18   19 1
    35   18   20 1
    36   18   21 1
    37   20   47 1
    38   20   48 1
    39   20   49 1
    40   21   22 2
    41   21   23 am
    42   23   24 1
    43   23   50 1
    44   24   25 1
    45   24   51 1
    46   24   52 1
    47   25   30 1
    48   25   26 1
    49   25   53 1
    50   26   27 1
    51   26   54 1
    52   26   55 1
    53   27   28 1
    54   27   56 1
    55   27   57 1
    56   28   29 1
    57   28   31 1
    58   28   58 1
    59   29   30 1
    60   29   59 1
    61   29   60 1
    62   30   61 1
    63   30   62 1
    64   31   32 2
    65   31   33 1
@<TRIPOS>MOLECULE
ZINC13415082
   48    52     0     0     0
SMALL
USER_CHARGES

@<TRIPOS>ATOM
      1 C1         -0.0184    1.5028    0.0103 C.3       1 <0>        -0.1188
      2 C2          0.0021   -0.0041    0.0020 C.ar      1 <0>        -0.0663
      3 C3          0.0058   -0.6883   -1.1999 C.ar      1 <0>        -0.1080
      4 C4          0.0245   -2.0707   -1.2115 C.ar      1 <0>        -0.1072
      5 C5          0.0400   -2.7726   -0.0218 C.ar      1 <0>        -0.1175
      6 C6          0.0368   -2.0886    1.1861 C.ar      1 <0>         0.1184
      7 C7          0.0229   -0.7002    1.1945 C.ar      1 <0>        -0.0946
      8 N1          0.0526   -2.7982    2.3950 N.pl3     1 <0>        -0.4264
      9 C8         -0.9256   -3.6378    2.8816 C.2       1 <0>         0.2639
     10 N2         -0.5031   -4.0888    4.0407 N.2       1 <0>        -0.2694
     11 N3          0.6534   -3.5977    4.3094 N.2       1 <0>        -0.2863
     12 C9          1.0467   -2.8071    3.3382 C.2       1 <0>         0.1815
     13 S1          2.5668   -1.9192    3.2635 S.3       1 <0>         0.0212
     14 C10         3.4123   -2.3661    4.8050 C.3       1 <0>        -0.0022
     15 C11         4.7446   -1.6647    4.8687 C.2       1 <0>        -0.0047
     16 C12         4.9756   -0.4349    5.4182 C.2       1 <0>        -0.1798
     17 C13         6.4148   -0.1868    5.2394 C.2       1 <0>        -0.1838
     18 C14         6.9000   -1.2687    4.6128 C.2       1 <0>        -0.0540
     19 O1          5.9019   -2.1414    4.4029 O.3       1 <0>        -0.1875
     20 C15         3.9927    0.4535    6.0540 C.2       1 <0>         0.5422
     21 O2          4.3469    1.5343    6.5056 O.co2     1 <0>        -0.6861
     22 O3          2.8200    0.1125    6.1317 O.co2     1 <0>        -0.6750
     23 C16        -2.2063   -3.9673    2.2250 C.2       1 <0>        -0.0999
     24 C17        -2.6446   -3.5073    1.0247 C.2       1 <0>         0.0784
     25 N4         -3.8741   -4.0331    0.7512 N.pl3     1 <0>        -0.5842
     26 H1         -4.3898   -3.8511   -0.0499 H         1 <0>         0.4197
     27 C18        -4.2771   -4.8606    1.7773 C.ar      1 <0>         0.0947
     28 C19        -3.2546   -4.8639    2.7412 C.ar      1 <0>        -0.0725
     29 C20        -3.3893   -5.6282    3.8986 C.ar      1 <0>        -0.0558
     30 C21        -4.5264   -6.3814    4.0899 C.ar      1 <0>        -0.1461
     31 C22        -5.5350   -6.3821    3.1368 C.ar      1 <0>        -0.0954
     32 C23        -5.4197   -5.6245    1.9919 C.ar      1 <0>        -0.1338
     33 H2          1.0042    1.8801    0.0026 H         1 <0>         0.0796
     34 H3         -0.5455    1.8639   -0.8728 H         1 <0>         0.0698
     35 H4         -0.5286    1.8543    0.9071 H         1 <0>         0.0724
     36 H5         -0.0063   -0.1416   -2.1312 H         1 <0>         0.1313
     37 H6          0.0266   -2.6023   -2.1516 H         1 <0>         0.1343
     38 H7          0.0543   -3.8525   -0.0314 H         1 <0>         0.1314
     39 H8          0.0245   -0.1653    2.1328 H         1 <0>         0.1383
     40 H9          2.8013   -2.0634    5.6554 H         1 <0>         0.1460
     41 H10         3.5676   -3.4445    4.8347 H         1 <0>         0.0983
     42 H11         6.9675    0.6877    5.5495 H         1 <0>         0.1505
     43 H12         7.9307   -1.4162    4.3261 H         1 <0>         0.1991
     44 H13        -2.1026   -2.8277    0.3839 H         1 <0>         0.1771
     45 H14        -2.6057   -5.6303    4.6418 H         1 <0>         0.1364
     46 H15        -4.6335   -6.9748    4.9859 H         1 <0>         0.1252
     47 H16        -6.4221   -6.9769    3.2974 H         1 <0>         0.1253
     48 H17        -6.2102   -5.6332    1.2560 H         1 <0>         0.1202
@<TRIPOS>BOND
     1    1    2 1
     2    1   33 1
     3    1   34 1
     4    1   35 1
     5    2    7 ar
     6    2    3 ar
     7    3    4 ar
     8    3   36 1
     9    4    5 ar
    10    4   37 1
    11    5    6 ar
    12    5   38 1
    13    6    7 ar
    14    6    8 1
    15    7   39 1
    16    8   12 1
    17    8    9 1
    18    9   10 2
    19    9   23 1
    20   10   11 1
    21   11   12 2
    22   12   13 1
    23   13   14 1
    24   14   15 1
    25   14   40 1
    26   14   41 1
    27   15   19 1
    28   15   16 2
    29   16   17 1
    30   16   20 1
    31   17   18 2
    32   17   42 1
    33   18   19 1
    34   18   43 1
    35   20   21 2
    36   20   22 1
    37   23   28 1
    38   23   24 2
    39   24   25 1
    40   24   44 1
    41   25   26 1
    42   25   27 1
    43   27   32 ar
    44   27   28 ar
    45   28   29 ar
    46   29   30 ar
    47   29   45 1
    48   30   31 ar
    49   30   46 1
    50   31   32 ar
    51   31   47 1
    52   32   48 1
@<TRIPOS>MOLECULE
ZINC09237706
   59    62     0     0     0
SMALL
USER_CHARGES

@<TRIPOS>ATOM
      1 C1          3.5756   -1.2726    1.5554 C.3       1 <0>        -0.1157
      2 C2          2.3280   -1.9955    1.1173 C.ar      1 <0>        -0.1079
      3 C3          2.3188   -2.7015   -0.0699 C.ar      1 <0>        -0.1041
      4 C4          1.1744   -3.3646   -0.4728 C.ar      1 <0>        -0.1294
      5 C5          0.0354   -3.3234    0.3108 C.ar      1 <0>        -0.1086
      6 C6          0.0380   -2.6194    1.4988 C.ar      1 <0>        -0.1173
      7 C7          1.1880   -1.9573    1.9095 C.ar      1 <0>         0.1420
      8 N1          1.1958   -1.2486    3.1150 N.am      1 <0>        -0.6630
      9 C8          0.0826   -0.6122    3.5299 C.2       1 <0>         0.5831
     10 O1         -0.9497   -0.7126    2.8918 O.2       1 <0>        -0.5091
     11 C9          0.1133    0.1732    4.7076 C.2       1 <0>        -0.2215
     12 C10         0.2023   -0.4383    5.8993 C.2       1 <0>         0.1716
     13 N2          0.2260    0.2847    7.0614 N.pl3     1 <0>        -0.6366
     14 C11        -0.2001    1.5908    7.0739 C.2       1 <0>         0.4471
     15 C12        -0.3077    2.2938    5.9118 C.2       1 <0>        -0.3053
     16 C13        -0.7540    3.6269    5.9592 C.2       1 <0>         0.5668
     17 O2         -0.8619    4.2748    4.9323 O.2       1 <0>        -0.5031
     18 N3         -1.0611    4.1830    7.1475 N.am      1 <0>        -0.5580
     19 C14        -0.9447    3.4742    8.2852 C.2       1 <0>         0.7073
     20 O3         -1.2252    3.9955    9.3472 O.2       1 <0>        -0.5293
     21 N4         -0.5218    2.1968    8.2649 N.am      1 <0>        -0.5436
     22 C15        -0.4042    1.4482    9.5186 C.3       1 <0>         0.0682
     23 C16        -1.5260    5.5713    7.2012 C.3       1 <0>         0.0805
     24 C17         0.0518    1.6689    4.5912 C.3       1 <0>         0.1093
     25 H1         -0.7023    1.9400    3.8522 H         1 <0>         0.1006
     26 C18         1.3936    2.1864    4.1408 C.ar      1 <0>        -0.0766
     27 C19         2.5184    1.9472    4.9090 C.ar      1 <0>        -0.0898
     28 C20         3.7495    2.4201    4.4997 C.ar      1 <0>        -0.1014
     29 C21         3.8574    3.1369    3.3140 C.ar      1 <0>        -0.0804
     30 C22         2.7249    3.3749    2.5443 C.ar      1 <0>        -0.1291
     31 C23         1.4980    2.8944    2.9573 C.ar      1 <0>        -0.0736
     32 S1          5.4260    3.7428    2.7879 S.3       1 <0>        -0.1230
     33 C24         5.0670    4.5922    1.2258 C.3       1 <0>        -0.1432
     34 C25         0.2767   -1.9423    5.9586 C.3       1 <0>        -0.1304
     35 H2          4.1917   -1.9423    2.1555 H         1 <0>         0.0700
     36 H3          4.1366   -0.9515    0.6778 H         1 <0>         0.0707
     37 H4          3.3009   -0.4013    2.1499 H         1 <0>         0.0652
     38 H5          3.2064   -2.7353   -0.6842 H         1 <0>         0.1247
     39 H6          1.1697   -3.9156   -1.4017 H         1 <0>         0.1225
     40 H7         -0.8570   -3.8421   -0.0069 H         1 <0>         0.1245
     41 H8         -0.8519   -2.5871    2.1099 H         1 <0>         0.1385
     42 H9          2.0025   -1.2151    3.6527 H         1 <0>         0.4098
     43 H10         0.5447   -0.1271    7.8798 H         1 <0>         0.4211
     44 H11         0.5965    1.5821    9.9293 H         1 <0>         0.0834
     45 H12        -1.1419    1.8158   10.2319 H         1 <0>         0.1074
     46 H13        -0.5798    0.3895    9.3274 H         1 <0>         0.0852
     47 H14        -2.6123    5.5942    7.1140 H         1 <0>         0.0750
     48 H15        -1.2282    6.0178    8.1498 H         1 <0>         0.0916
     49 H16        -1.0836    6.1346    6.3796 H         1 <0>         0.0955
     50 H17         2.4338    1.3901    5.8304 H         1 <0>         0.1165
     51 H18         4.6273    2.2336    5.1005 H         1 <0>         0.1254
     52 H19         2.8051    3.9315    1.6223 H         1 <0>         0.1229
     53 H20         0.6182    3.0755    2.3577 H         1 <0>         0.1264
     54 H21         5.9887    5.0066    0.8173 H         1 <0>         0.1094
     55 H22         4.6418    3.8827    0.5159 H         1 <0>         0.0844
     56 H23         4.3549    5.3975    1.4054 H         1 <0>         0.0844
     57 H24         1.3111   -2.2603    5.8286 H         1 <0>         0.0922
     58 H25        -0.0905   -2.2864    6.9255 H         1 <0>         0.0844
     59 H26        -0.3368   -2.3680    5.1645 H         1 <0>         0.0924
@<TRIPOS>BOND
     1    1    2 1
     2    1   35 1
     3    1   36 1
     4    1   37 1
     5    2    7 ar
     6    2    3 ar
     7    3    4 ar
     8    3   38 1
     9    4    5 ar
    10    4   39 1
    11    5    6 ar
    12    5   40 1
    13    6    7 ar
    14    6   41 1
    15    7    8 1
    16    8    9 am
    17    8   42 1
    18    9   10 2
    19    9   11 1
    20   11   24 1
    21   11   12 2
    22   12   13 1
    23   12   34 1
    24   13   14 1
    25   13   43 1
    26   14   21 1
    27   14   15 2
    28   15   16 1
    29   15   24 1
    30   16   17 2
    31   16   18 am
    32   18   19 am
    33   18   23 1
    34   19   20 2
    35   19   21 am
    36   21   22 1
    37   22   44 1
    38   22   45 1
    39   22   46 1
    40   23   47 1
    41   23   48 1
    42   23   49 1
    43   24   25 1
    44   24   26 1
    45   26   31 ar
    46   26   27 ar
    47   27   28 ar
    48   27   50 1
    49   28   29 ar
    50   28   51 1
    51   29   30 ar
    52   29   32 1
    53   30   31 ar
    54   30   52 1
    55   31   53 1
    56   32   33 1
    57   33   54 1
    58   33   55 1
    59   33   56 1
    60   34   57 1
    61   34   58 1
    62   34   59 1
@<TRIPOS>MOLECULE
ZINC13275729
   42    44     0     0     0
SMALL
USER_CHARGES
4-[[4-(2-fluorophenyl)sulfanyl-3-nitro-phenyl]sulfonylamino]benzoic acid
@<TRIPOS>ATOM
      1 C1          2.4341    0.1618    0.8617 C.ar      1 <0>        -0.0554
      2 C2          1.7716    0.2365   -0.3500 C.ar      1 <0>        -0.1388
      3 C3          0.5659    0.9041   -0.4406 C.ar      1 <0>        -0.0292
      4 C4          0.0169    1.5004    0.6873 C.ar      1 <0>        -0.2391
      5 C5          0.6850    1.4235    1.9053 C.ar      1 <0>         0.1498
      6 C6          1.8921    0.7542    1.9879 C.ar      1 <0>        -0.1631
      7 F1          0.1555    2.0021    3.0053 F         1 <0>        -0.1222
      8 S1         -1.5252    2.3457    0.5777 S.3       1 <0>         0.1616
      9 C7         -1.0789    4.0502    0.5933 C.ar      1 <0>        -0.0132
     10 C8          0.2605    4.4200    0.5581 C.ar      1 <0>        -0.1530
     11 C9          0.6064    5.7565    0.5706 C.ar      1 <0>         0.0483
     12 C10        -0.3781    6.7271    0.6185 C.ar      1 <0>        -0.6898
     13 C11        -1.7117    6.3628    0.6532 C.ar      1 <0>         0.0797
     14 C12        -2.0654    5.0280    0.6352 C.ar      1 <0>        -0.0551
     15 N1         -3.4933    4.6392    0.6667 N.pl3     1 <0>         0.0300
     16 O1         -4.3574    5.4969    0.7033 O.2       1 <0>        -0.1332
     17 O2         -3.8042    3.4616    0.6559 O.3       1 <0>        -0.1515
     18 S2          0.0681    8.4315    0.6348 S.o2      1 <0>         2.6936
     19 O3         -0.9669    9.1157    1.3276 O.2       1 <0>        -0.9342
     20 O4          1.4276    8.4915    1.0440 O.2       1 <0>        -0.9536
     21 N2          0.0215    8.9649   -0.9322 N.pl3     1 <0>        -1.0479
     22 C13        -1.1819    8.9736   -1.6280 C.ar      1 <0>         0.0905
     23 C14        -1.4172    8.0261   -2.6207 C.ar      1 <0>        -0.1291
     24 C15        -2.6051    8.0289   -3.3055 C.ar      1 <0>        -0.0758
     25 C16        -3.5766    8.9915   -3.0133 C.ar      1 <0>        -0.0910
     26 C17        -3.3349    9.9451   -2.0192 C.ar      1 <0>        -0.0792
     27 C18        -2.1470    9.9334   -1.3346 C.ar      1 <0>        -0.1146
     28 C19        -4.8525    9.0008   -3.7510 C.2       1 <0>         0.4860
     29 O5         -5.6958    9.8376   -3.4957 O.co2     1 <0>        -0.6247
     30 H1          3.3769   -0.3607    0.9288 H         1 <0>         0.1409
     31 H2          2.1979   -0.2280   -1.2269 H         1 <0>         0.1401
     32 H3          0.0498    0.9616   -1.3876 H         1 <0>         0.1463
     33 H4          2.4119    0.6936    2.9326 H         1 <0>         0.1440
     34 H5          1.0296    3.6628    0.5207 H         1 <0>         0.1491
     35 H6          1.6469    6.0446    0.5432 H         1 <0>         0.1617
     36 H7         -2.4777    7.1233    0.6898 H         1 <0>         0.1748
     37 H8          0.8340    9.2712   -1.3647 H         1 <0>         0.4234
     38 H9         -0.6649    7.2855   -2.8487 H         1 <0>         0.1196
     39 H10        -2.7888    7.2909   -4.0724 H         1 <0>         0.1361
     40 H11        -4.0831   10.6897   -1.7909 H         1 <0>         0.1372
     41 H12        -1.9598   10.6693   -0.5665 H         1 <0>         0.1314
     42 O6         -5.0838    8.0812   -4.7085 O.co2     1 <0>        -0.7503
@<TRIPOS>BOND
     1    1    6 ar
     2    1    2 ar
     3    1   30 1
     4    2    3 ar
     5    2   31 1
     6    3    4 ar
     7    3   32 1
     8    4    5 ar
     9    4    8 1
    10    5    6 ar
    11    5    7 1
    12    6   33 1
    13    8    9 1
    14    9   14 ar
    15    9   10 ar
    16   10   11 ar
    17   10   34 1
    18   11   12 ar
    19   11   35 1
    20   12   13 ar
    21   12   18 1
    22   13   14 ar
    23   13   36 1
    24   14   15 1
    25   15   16 2
    26   15   17 1
    27   18   19 2
    28   18   20 2
    29   18   21 1
    30   21   22 1
    31   21   37 1
    32   22   27 ar
    33   22   23 ar
    34   23   24 ar
    35   23   38 1
    36   24   25 ar
    37   24   39 1
    38   25   26 ar
    39   25   28 1
    40   26   27 ar
    41   26   40 1
    42   27   41 1
    43   28   29 2
    44   28   42 1
@<TRIPOS>MOLECULE
ZINC20569419
   51    54     0     0     0
SMALL
USER_CHARGES
N-(5-acetyl-4-phenyl-thiazol-2-yl)-2-(benzenesulfonamido)benzamide
@<TRIPOS>ATOM
      1 C1          2.4890   -2.3396   -1.6846 C.3       1 <0>        -0.1978
      2 C2          1.1040   -1.7533   -1.5897 C.2       1 <0>         0.4417
      3 O1          0.1352   -2.4364   -1.8579 O.2       1 <0>        -0.4652
      4 C3          0.9327   -0.4168   -1.1910 C.2       1 <0>        -0.3824
      5 C4         -0.2482    0.2940   -0.9167 C.2       1 <0>         0.2342
      6 N1         -0.1214    1.5514   -0.5574 N.2       1 <0>        -0.5716
      7 C5          1.0638    2.1285   -0.4564 C.2       1 <0>         0.3345
      8 S1          2.1558    0.8510   -0.8909 S.3       1 <0>         0.2286
      9 N2          1.3602    3.4283   -0.0944 N.am      1 <0>        -0.6249
     10 C6          2.6430    3.8389   -0.0475 C.2       1 <0>         0.5576
     11 O2          3.5395    3.0653   -0.3239 O.2       1 <0>        -0.4465
     12 C7          2.9593    5.2255    0.3387 C.ar      1 <0>        -0.2090
     13 C8          1.9323    6.1184    0.6574 C.ar      1 <0>        -0.0511
     14 C9          2.2346    7.4130    1.0176 C.ar      1 <0>        -0.2119
     15 C10         3.5535    7.8368    1.0662 C.ar      1 <0>        -0.0517
     16 C11         4.5786    6.9677    0.7550 C.ar      1 <0>        -0.2536
     17 C12         4.2941    5.6562    0.3946 C.ar      1 <0>         0.3067
     18 N3          5.3245    4.7779    0.0861 N.2       1 <0>        -1.0149
     19 S2          6.7897    4.9213    0.8445 S.o2      1 <0>         2.5907
     20 O3          7.5736    3.8122    0.4266 O.2       1 <0>        -0.9861
     21 O4          7.2124    6.2654    0.6604 O.2       1 <0>        -1.0367
     22 C13         6.5051    4.7148    2.5710 C.ar      1 <0>        -0.6557
     23 C14         6.2254    5.8136    3.3617 C.ar      1 <0>        -0.0275
     24 C15         5.9969    5.6509    4.7153 C.ar      1 <0>        -0.1478
     25 C16         6.0589    4.3908    5.2802 C.ar      1 <0>        -0.0875
     26 C17         6.3442    3.2926    4.4905 C.ar      1 <0>        -0.1487
     27 C18         6.5670    3.4546    3.1359 C.ar      1 <0>        -0.0240
     28 C19        -1.5783   -0.3465   -1.0284 C.ar      1 <0>        -0.0299
     29 C20        -2.6213    0.3137   -1.6786 C.ar      1 <0>        -0.0808
     30 C21        -3.8568   -0.2912   -1.7848 C.ar      1 <0>        -0.1332
     31 C22        -4.0659   -1.5445   -1.2373 C.ar      1 <0>        -0.1096
     32 C23        -3.0373   -2.2019   -0.5863 C.ar      1 <0>        -0.1285
     33 C24        -1.7955   -1.6103   -0.4789 C.ar      1 <0>        -0.0514
     34 H1          3.2302   -1.5762   -1.4057 H         1 <0>         0.0772
     35 H2          2.6762   -2.6729   -2.7161 H         1 <0>         0.0945
     36 H3          2.5715   -3.1977   -1.0013 H         1 <0>         0.0945
     37 H4          0.5492    4.1282    0.1556 H         1 <0>         0.4458
     38 H5          0.9029    5.7935    0.6215 H         1 <0>         0.1078
     39 H6          1.4398    8.1015    1.2638 H         1 <0>         0.1110
     40 H7          3.7800    8.8540    1.3498 H         1 <0>         0.1108
     41 H8          5.6036    7.3057    0.7957 H         1 <0>         0.1551
     42 H9          6.1814    6.7987    2.9212 H         1 <0>         0.1330
     43 H10         5.7737    6.5089    5.3322 H         1 <0>         0.1222
     44 H11         5.8840    4.2642    6.3384 H         1 <0>         0.1197
     45 H12         6.3926    2.3081    4.9318 H         1 <0>         0.1222
     46 H13         6.7899    2.5966    2.5189 H         1 <0>         0.1334
     47 H14        -2.4605    1.2941   -2.1021 H         1 <0>         0.1231
     48 H15        -4.6636    0.2168   -2.2921 H         1 <0>         0.1219
     49 H16        -5.0362   -2.0117   -1.3188 H         1 <0>         0.1196
     50 H17        -3.2068   -3.1801   -0.1610 H         1 <0>         0.1220
     51 H18        -0.9932   -2.1247    0.0293 H         1 <0>         0.1204
@<TRIPOS>BOND
     1    1    2 1
     2    1   34 1
     3    1   35 1
     4    1   36 1
     5    2    3 2
     6    2    4 1
     7    4    8 1
     8    4    5 2
     9    5    6 1
    10    5   28 1
    11    6    7 2
    12    7    8 1
    13    7    9 1
    14    9   10 am
    15    9   37 1
    16   10   11 2
    17   10   12 1
    18   12   17 ar
    19   12   13 ar
    20   13   14 ar
    21   13   38 1
    22   14   15 ar
    23   14   39 1
    24   15   16 ar
    25   15   40 1
    26   16   17 ar
    27   16   41 1
    28   17   18 1
    29   18   19 1
    30   19   20 2
    31   19   21 2
    32   19   22 1
    33   22   27 ar
    34   22   23 ar
    35   23   24 ar
    36   23   42 1
    37   24   25 ar
    38   24   43 1
    39   25   26 ar
    40   25   44 1
    41   26   27 ar
    42   26   45 1
    43   27   46 1
    44   28   33 ar
    45   28   29 ar
    46   29   30 ar
    47   29   47 1
    48   30   31 ar
    49   30   48 1
    50   31   32 ar
    51   31   49 1
    52   32   33 ar
    53   32   50 1
    54   33   51 1
@<TRIPOS>MOLECULE
ZINC35697588
   55    58     0     0     0
SMALL
USER_CHARGES

@<TRIPOS>ATOM
      1 C1          1.0819    1.4363    1.8841 C.3       1 <0>        -0.1087
      2 C2          0.8633    0.0091    1.4526 C.ar      1 <0>        -0.0904
      3 C3          0.5321   -0.2733    0.1406 C.ar      1 <0>        -0.1243
      4 C4          0.3315   -1.5825   -0.2552 C.ar      1 <0>        -0.0771
      5 C5          0.4627   -2.6094    0.6609 C.ar      1 <0>        -0.0768
      6 C6          0.7947   -2.3270    1.9727 C.ar      1 <0>        -0.0877
      7 C7          0.9995   -1.0182    2.3676 C.ar      1 <0>        -0.1219
      8 C8          0.2431   -4.0365    0.2296 C.3       1 <0>         0.2603
      9 H1         -0.2411   -4.0180   -0.7468 H         1 <0>         0.0739
     10 C9          1.5985   -4.6870    0.0650 C.2       1 <0>        -0.3912
     11 C10         1.8677   -5.8143    0.8172 C.2       1 <0>         0.3015
     12 N1          0.9598   -6.2976    1.6494 N.2       1 <0>        -0.5970
     13 C11        -0.2366   -5.7803    1.8393 C.2       1 <0>         0.3197
     14 N2         -0.6966   -4.6670    1.1947 N.pl3     1 <0>        -0.5121
     15 C12        -1.9756   -4.2486    1.5034 C.2       1 <0>         0.2315
     16 C13        -2.6679   -4.9679    2.4141 C.2       1 <0>        -0.3058
     17 S1         -1.5034   -6.2458    2.8371 S.3       1 <0>         0.1412
     18 C14        -2.5633   -3.0623    0.8644 C.2       1 <0>        -0.4652
     19 C15        -3.8577   -2.7554    1.0754 C.2       1 <0>         0.5029
     20 O1         -4.5870   -3.4700    1.9666 O.3       1 <0>        -0.7022
     21 N3         -4.4432   -1.7097    0.3818 N.pl3     1 <0>        -0.7470
     22 C16        -5.8164   -1.3036    0.6910 C.3       1 <0>         0.1899
     23 C17        -6.2545   -0.2354   -0.2776 C.ar      1 <0>         0.1225
     24 C18        -6.9674   -0.5888   -1.4078 C.ar      1 <0>        -0.1566
     25 C19        -7.3656    0.4015   -2.2924 C.ar      1 <0>        -0.0785
     26 C20        -7.0303    1.7162   -2.0058 C.ar      1 <0>        -0.1788
     27 C21        -6.3156    1.9935   -0.8562 C.ar      1 <0>         0.0963
     28 N4         -5.9579    1.0261   -0.0343 N.ar      1 <0>        -0.4709
     29 C22         3.2043   -6.4984    0.6884 C.3       1 <0>        -0.1084
     30 C23         2.5488   -4.1643   -0.8205 C.2       1 <0>         0.5360
     31 O2          3.6740   -4.6316   -0.8523 O.2       1 <0>        -0.5491
     32 O3          2.2184   -3.1418   -1.6400 O.3       1 <0>        -0.3564
     33 C24         3.2374   -2.6584   -2.5175 C.3       1 <0>         0.0415
     34 H2          2.1309    1.7000    1.7495 H         1 <0>         0.0637
     35 H3          0.4607    2.0977    1.2802 H         1 <0>         0.0625
     36 H4          0.8123    1.5436    2.9348 H         1 <0>         0.0621
     37 H5          0.4296    0.5289   -0.5752 H         1 <0>         0.1149
     38 H6          0.0721   -1.8031   -1.2801 H         1 <0>         0.1191
     39 H7          0.8968   -3.1293    2.6886 H         1 <0>         0.1039
     40 H8          1.2626   -0.7979    3.3916 H         1 <0>         0.1139
     41 H9         -3.6686   -4.8091    2.7880 H         1 <0>         0.2374
     42 H10        -1.9572   -2.4369    0.2258 H         1 <0>         0.0914
     43 H11        -3.9441   -1.2461   -0.3088 H         1 <0>         0.3857
     44 H12        -6.4782   -2.1655    0.6051 H         1 <0>         0.0725
     45 H13        -5.8595   -0.9123    1.7074 H         1 <0>         0.0658
     46 H14        -7.2108   -1.6234   -1.5996 H         1 <0>         0.1366
     47 H15        -7.9234    0.1549   -3.1838 H         1 <0>         0.1328
     48 H16        -7.3239    2.5132   -2.6729 H         1 <0>         0.1319
     49 H17        -6.0506    3.0149   -0.6258 H         1 <0>         0.1537
     50 H18         3.9233   -6.0190    1.3527 H         1 <0>         0.0809
     51 H19         3.1025   -7.5489    0.9605 H         1 <0>         0.0642
     52 H20         3.5538   -6.4219   -0.3412 H         1 <0>         0.1039
     53 H21         2.8411   -1.8399   -3.1184 H         1 <0>         0.0893
     54 H22         4.0834   -2.3014   -1.9301 H         1 <0>         0.0513
     55 H23         3.5649   -3.4651   -3.1732 H         1 <0>         0.0511
@<TRIPOS>BOND
     1    1    2 1
     2    1   34 1
     3    1   35 1
     4    1   36 1
     5    2    7 ar
     6    2    3 ar
     7    3    4 ar
     8    3   37 1
     9    4    5 ar
    10    4   38 1
    11    5    6 ar
    12    5    8 1
    13    6    7 ar
    14    6   39 1
    15    7   40 1
    16    8    9 1
    17    8   14 1
    18    8   10 1
    19   10   11 2
    20   10   30 1
    21   11   12 1
    22   11   29 1
    23   12   13 2
    24   13   17 1
    25   13   14 1
    26   14   15 1
    27   15   16 2
    28   15   18 1
    29   16   17 1
    30   16   41 1
    31   18   19 2
    32   18   42 1
    33   19   20 1
    34   19   21 1
    35   21   22 1
    36   21   43 1
    37   22   23 1
    38   22   44 1
    39   22   45 1
    40   23   28 ar
    41   23   24 ar
    42   24   25 ar
    43   24   46 1
    44   25   26 ar
    45   25   47 1
    46   26   27 ar
    47   26   48 1
    48   27   28 ar
    49   27   49 1
    50   29   50 1
    51   29   51 1
    52   29   52 1
    53   30   31 2
    54   30   32 1
    55   32   33 1
    56   33   53 1
    57   33   54 1
    58   33   55 1
@<TRIPOS>MOLECULE
ZINC13223250
   52    56     0     0     0
SMALL
USER_CHARGES

@<TRIPOS>ATOM
      1 C1         -0.0166    1.3737    0.0096 C.ar      1 <0>        -0.1269
      2 C2          1.1719    2.0889    0.0021 C.ar      1 <0>        -0.1009
      3 C3          2.3849    1.4352   -0.0135 C.ar      1 <0>        -0.1210
      4 C4          2.4252    0.0442   -0.0214 C.ar      1 <0>         0.0870
      5 C5          1.2214   -0.6777   -0.0133 C.ar      1 <0>        -0.0624
      6 C6          0.0021   -0.0041    0.0020 C.ar      1 <0>        -0.0810
      7 C7          1.5967   -2.1041   -0.0247 C.2       1 <0>        -0.2476
      8 C8          2.9900   -2.1382   -0.0387 C.2       1 <0>         0.2301
      9 N1          3.4670   -0.8625   -0.0366 N.pl3     1 <0>        -0.5692
     10 H1          4.4072   -0.6240   -0.0447 H         1 <0>         0.4208
     11 C9          3.8156   -3.3600   -0.0535 C.ar      1 <0>        -0.0774
     12 C10         3.5052   -4.4268    0.7945 C.ar      1 <0>        -0.0070
     13 C11         4.2802   -5.5664    0.7759 C.ar      1 <0>        -0.1548
     14 C12         5.3662   -5.6556   -0.0816 C.ar      1 <0>         0.1208
     15 C13         5.6791   -4.6006   -0.9252 C.ar      1 <0>        -0.1642
     16 C14         4.9081   -3.4581   -0.9197 C.ar      1 <0>        -0.0679
     17 F1          6.1228   -6.7748   -0.0948 F         1 <0>        -0.1358
     18 C15         0.7209   -3.2119   -0.0215 C.2       1 <0>         0.4411
     19 O1          1.1694   -4.3407   -0.0317 O.2       1 <0>        -0.4493
     20 C16        -0.7701   -2.9937   -0.0056 C.3       1 <0>        -0.1716
     21 S1         -1.6161   -4.5983   -0.0052 S.3       1 <0>         0.0666
     22 C17        -3.3271   -4.1781    0.0139 C.2       1 <0>         0.3895
     23 N2         -3.6589   -2.9106    0.0183 N.2       1 <0>        -0.5626
     24 C18        -4.9484   -2.5177    0.0327 C.ar      1 <0>         0.1864
     25 C19        -5.3025   -1.1651    0.0369 C.ar      1 <0>        -0.1252
     26 C20        -6.6223   -0.8117    0.0512 C.ar      1 <0>        -0.0746
     27 C21        -7.6208   -1.7772    0.0623 C.ar      1 <0>        -0.1598
     28 C22        -7.3061   -3.1081    0.0586 C.ar      1 <0>        -0.0331
     29 C23        -5.9675   -3.4973    0.0435 C.ar      1 <0>        -0.2050
     30 C24        -5.5703   -4.9117    0.0383 C.2       1 <0>         0.5559
     31 O2         -6.4014   -5.8011    0.0467 O.2       1 <0>        -0.5099
     32 N3         -4.2457   -5.1888    0.0180 N.am      1 <0>        -0.4870
     33 C25        -3.7940   -6.5823    0.0060 C.3       1 <0>         0.0116
     34 C26        -3.6246   -7.0677    1.4226 C.2       1 <0>         0.4954
     35 O3         -3.8593   -6.3189    2.3557 O.co2     1 <0>        -0.6756
     36 O4         -3.2527   -8.2091    1.6356 O.co2     1 <0>        -0.6822
     37 H2         -0.9603    1.8987    0.0259 H         1 <0>         0.1289
     38 H3          1.1463    3.1686    0.0081 H         1 <0>         0.1280
     39 H4          3.3040    2.0023   -0.0199 H         1 <0>         0.1222
     40 H5         -0.9243   -0.5592    0.0075 H         1 <0>         0.1358
     41 H6          2.6600   -4.3582    1.4633 H         1 <0>         0.1453
     42 H7          4.0414   -6.3913    1.4307 H         1 <0>         0.1450
     43 H8          6.5262   -4.6758   -1.5909 H         1 <0>         0.1390
     44 H9          5.1503   -2.6387   -1.5801 H         1 <0>         0.1312
     45 H10        -1.0463   -2.4371    0.8900 H         1 <0>         0.1293
     46 H11        -1.0640   -2.4282   -0.8899 H         1 <0>         0.1266
     47 H12        -4.5368   -0.4036    0.0291 H         1 <0>         0.1328
     48 H13        -6.8931    0.2338    0.0544 H         1 <0>         0.1262
     49 H14        -8.6571   -1.4736    0.0743 H         1 <0>         0.1254
     50 H15        -8.0888   -3.8522    0.0669 H         1 <0>         0.1324
     51 H16        -4.5338   -7.1997   -0.5036 H         1 <0>         0.1029
     52 H17        -2.8407   -6.6508   -0.5180 H         1 <0>         0.0959
@<TRIPOS>BOND
     1    1    6 ar
     2    1    2 ar
     3    1   37 1
     4    2    3 ar
     5    2   38 1
     6    3    4 ar
     7    3   39 1
     8    4    9 1
     9    4    5 ar
    10    5    6 ar
    11    5    7 1
    12    6   40 1
    13    7    8 2
    14    7   18 1
    15    8    9 1
    16    8   11 1
    17    9   10 1
    18   11   16 ar
    19   11   12 ar
    20   12   13 ar
    21   12   41 1
    22   13   14 ar
    23   13   42 1
    24   14   15 ar
    25   14   17 1
    26   15   16 ar
    27   15   43 1
    28   16   44 1
    29   18   19 2
    30   18   20 1
    31   20   21 1
    32   20   45 1
    33   20   46 1
    34   21   22 1
    35   22   32 1
    36   22   23 2
    37   23   24 1
    38   24   29 ar
    39   24   25 ar
    40   25   26 ar
    41   25   47 1
    42   26   27 ar
    43   26   48 1
    44   27   28 ar
    45   27   49 1
    46   28   29 ar
    47   28   50 1
    48   29   30 1
    49   30   31 2
    50   30   32 am
    51   32   33 1
    52   33   34 1
    53   33   51 1
    54   33   52 1
    55   34   35 2
    56   34   36 1
@<TRIPOS>MOLECULE
ZINC22506851
   55    58     0     0     0
SMALL
USER_CHARGES

@<TRIPOS>ATOM
      1 C1         -0.9705   -0.3604    0.7551 C.ar      1 <0>        -0.0994
      2 C2         -0.8142   -1.5203    1.4937 C.ar      1 <0>        -0.1241
      3 C3          0.3878   -2.1961    1.4764 C.ar      1 <0>        -0.0626
      4 C4          1.4494   -1.7070    0.7103 C.ar      1 <0>         0.0526
      5 C5          1.2840   -0.5354   -0.0333 C.ar      1 <0>        -0.1037
      6 C6          0.0763    0.1298   -0.0059 C.ar      1 <0>        -0.1254
      7 N1          2.6440   -2.3713    0.6887 N.2       1 <0>        -0.2287
      8 N2          3.6219   -1.9172   -0.0195 N.2       1 <0>        -0.1997
      9 C7          4.8146   -2.5804   -0.0411 C.ar      1 <0>         0.0139
     10 C8          4.9769   -3.7560    0.6996 C.ar      1 <0>        -0.0659
     11 C9          6.1814   -4.4222    0.6748 C.ar      1 <0>        -0.1308
     12 C10         7.2364   -3.9278   -0.0856 C.ar      1 <0>         0.1939
     13 C11         7.0792   -2.7590   -0.8236 C.ar      1 <0>        -0.1590
     14 C12         5.8763   -2.0896   -0.8085 C.ar      1 <0>        -0.0298
     15 N3          8.4562   -4.6061   -0.1076 N.am      1 <0>        -0.6776
     16 C13         8.4813   -5.9507   -0.0185 C.2       1 <0>         0.5163
     17 O1          7.4431   -6.5777   -0.0157 O.2       1 <0>        -0.4963
     18 C14         9.7993   -6.6750    0.0776 C.3       1 <0>        -0.1029
     19 C15         9.5479   -8.1816    0.1671 C.3       1 <0>        -0.1043
     20 H1          8.9290   -8.5284   -0.6604 H         1 <0>         0.1266
     21 C16        10.8554   -8.9602    0.2487 C.2       1 <0>         0.5192
     22 O2         11.6795   -8.9428   -0.6449 O.2       1 <0>        -0.5537
     23 N4         11.0290   -9.6465    1.3449 N.2       1 <0>        -0.7115
     24 C17        10.1595   -9.6955    2.3458 C.2       1 <0>         0.4652
     25 S1          8.8188   -8.6467    1.7939 S.3       1 <0>        -0.2208
     26 N5         10.2629  -10.3845    3.5200 N.2       1 <0>        -0.4598
     27 N6         11.3995  -11.1617    3.7784 N.2       1 <0>        -0.3136
     28 C18        11.4965  -11.8077    4.8794 C.2       1 <0>         0.0954
     29 C19        10.3925  -11.7506    5.9120 C.3       1 <0>        -0.1096
     30 C20        10.0141  -13.1838    6.3002 C.3       1 <0>        -0.1105
     31 C21        11.2663  -13.9340    6.7571 C.3       1 <0>        -0.1175
     32 C22        12.2549  -14.0486    5.5955 C.3       1 <0>        -0.1125
     33 C23        12.7151  -12.6526    5.1783 C.3       1 <0>        -0.0577
     34 H2         -1.9155    0.1623    0.7692 H         1 <0>         0.1262
     35 H3         -1.6355   -1.8970    2.0852 H         1 <0>         0.1316
     36 H4          0.5086   -3.1007    2.0538 H         1 <0>         0.1353
     37 H5          2.1002   -0.1515   -0.6273 H         1 <0>         0.1358
     38 H6         -0.0530    1.0356   -0.5797 H         1 <0>         0.1261
     39 H7          4.1585   -4.1402    1.2904 H         1 <0>         0.1404
     40 H8          6.3077   -5.3297    1.2466 H         1 <0>         0.1449
     41 H9          7.9008   -2.3783   -1.4123 H         1 <0>         0.1373
     42 H10         5.7537   -1.1846   -1.3849 H         1 <0>         0.1384
     43 H11         9.2858   -4.1098   -0.1871 H         1 <0>         0.4147
     44 H12        10.3982   -6.4585   -0.8070 H         1 <0>         0.1147
     45 H13        10.3328   -6.3421    0.9679 H         1 <0>         0.1062
     46 H14        10.7428  -11.2130    6.7931 H         1 <0>         0.0612
     47 H15         9.5239  -11.2437    5.4916 H         1 <0>         0.0844
     48 H16         9.2876  -13.1607    7.1124 H         1 <0>         0.0559
     49 H17         9.5804  -13.6914    5.4385 H         1 <0>         0.0580
     50 H18        11.7341  -13.3916    7.5787 H         1 <0>         0.0602
     51 H19        10.9876  -14.9320    7.0953 H         1 <0>         0.0555
     52 H20        13.1166  -14.6384    5.9083 H         1 <0>         0.0618
     53 H21        11.7682  -14.5357    4.7506 H         1 <0>         0.0611
     54 H22        13.3381  -12.7249    4.2868 H         1 <0>         0.0740
     55 H23        13.2842  -12.1999    5.9903 H         1 <0>         0.0706
@<TRIPOS>BOND
     1    1    6 ar
     2    1    2 ar
     3    1   34 1
     4    2    3 ar
     5    2   35 1
     6    3    4 ar
     7    3   36 1
     8    4    5 ar
     9    4    7 1
    10    5    6 ar
    11    5   37 1
    12    6   38 1
    13    7    8 2
    14    8    9 1
    15    9   14 ar
    16    9   10 ar
    17   10   11 ar
    18   10   39 1
    19   11   12 ar
    20   11   40 1
    21   12   13 ar
    22   12   15 1
    23   13   14 ar
    24   13   41 1
    25   14   42 1
    26   15   16 am
    27   15   43 1
    28   16   17 2
    29   16   18 1
    30   18   19 1
    31   18   44 1
    32   18   45 1
    33   19   20 1
    34   19   25 1
    35   19   21 1
    36   21   22 2
    37   21   23 1
    38   23   24 2
    39   24   25 1
    40   24   26 1
    41   26   27 1
    42   27   28 2
    43   28   33 1
    44   28   29 1
    45   29   30 1
    46   29   46 1
    47   29   47 1
    48   30   31 1
    49   30   48 1
    50   30   49 1
    51   31   32 1
    52   31   50 1
    53   31   51 1
    54   32   33 1
    55   32   52 1
    56   32   53 1
    57   33   54 1
    58   33   55 1
@<TRIPOS>MOLECULE
ZINC20580063
   54    57     0     0     0
SMALL
USER_CHARGES
N-[5-[(3S)-1-(3,4-dimethylphenyl)-5-oxo-pyrrolidin-3-yl]-1,3,4-thiadiazol-2-yl]-2-methyl-3,5-dinitro-benzamide
@<TRIPOS>ATOM
      1 C1         -0.7279   -2.7777   -4.0941 C.3       1 <0>        -0.1090
      2 C2         -0.7478   -1.3122   -3.7433 C.ar      1 <0>        -0.1186
      3 C3          0.3965   -0.5505   -3.8958 C.ar      1 <0>        -0.0886
      4 C4          0.3815    0.7926   -3.5752 C.ar      1 <0>        -0.1605
      5 C5         -0.7845    1.3786   -3.0998 C.ar      1 <0>         0.1706
      6 C6         -1.9302    0.6100   -2.9429 C.ar      1 <0>        -0.1550
      7 C7         -1.9101   -0.7319   -3.2702 C.ar      1 <0>        -0.0605
      8 C8         -3.1547   -1.5655   -3.1057 C.3       1 <0>        -0.1139
      9 N1         -0.8030    2.7393   -2.7741 N.am      1 <0>        -0.5575
     10 C9         -1.9989    3.4705   -2.3392 C.3       1 <0>         0.1096
     11 C10        -1.6570    4.9649   -2.5146 C.3       1 <0>         0.0251
     12 H1         -2.0561    5.4185   -3.4338 H         1 <0>         0.1127
     13 C11        -0.1139    4.9510   -2.4171 C.3       1 <0>        -0.1425
     14 C12         0.2710    3.5460   -2.8249 C.2       1 <0>         0.5278
     15 O1          1.3864    3.1979   -3.1501 O.2       1 <0>        -0.5130
     16 C13        -2.2598    5.7931   -1.4092 C.2       1 <0>        -0.0490
     17 N2         -2.1539    5.6662   -0.1014 N.2       1 <0>        -0.2321
     18 N3         -2.7286    6.4539    0.6986 N.2       1 <0>        -0.3720
     19 C14        -3.4773    7.4614    0.2712 C.2       1 <0>         0.3762
     20 S1         -3.3178    7.2349   -1.4978 S.3       1 <0>        -0.1166
     21 N4         -4.1799    8.4211    0.9901 N.2       1 <0>        -0.6469
     22 C15        -4.1561    8.4050    2.3376 C.2       1 <0>         0.5049
     23 O2         -3.5201    7.5511    2.9241 O.3       1 <0>        -0.5400
     24 C16        -4.9033    9.4256    3.1021 C.ar      1 <0>        -0.0871
     25 C17        -5.5233   10.4852    2.4372 C.ar      1 <0>         0.0436
     26 C18        -6.2239   11.4311    3.1562 C.ar      1 <0>        -0.0700
     27 C19        -6.3038   11.3375    4.5346 C.ar      1 <0>         0.0167
     28 C20        -5.6867   10.2935    5.2002 C.ar      1 <0>        -0.0654
     29 C21        -4.9875    9.3375    4.4926 C.ar      1 <0>         0.0772
     30 C22        -4.3167    8.2004    5.2192 C.3       1 <0>        -0.1839
     31 N5         -5.7771   10.2017    6.6748 N.pl3     1 <0>         0.0413
     32 O3         -6.4887   10.9750    7.2906 O.2       1 <0>        -0.1452
     33 O4         -5.1398    9.3530    7.2723 O.3       1 <0>        -0.1436
     34 N6         -6.8865   12.5521    2.4525 N.pl3     1 <0>         0.0335
     35 O5         -7.5013   13.3909    3.0865 O.2       1 <0>        -0.1563
     36 O6         -6.8170   12.6357    1.2393 O.3       1 <0>        -0.1391
     37 H2          0.2751   -3.0559   -4.4500 H         1 <0>         0.0619
     38 H3         -1.4657   -2.9753   -4.8857 H         1 <0>         0.0657
     39 H4         -0.9785   -3.3715   -3.2027 H         1 <0>         0.0659
     40 H5          1.3029   -1.0068   -4.2655 H         1 <0>         0.1239
     41 H6          1.2754    1.3868   -3.6945 H         1 <0>         0.1552
     42 H7         -2.8372    1.0617   -2.5691 H         1 <0>         0.1260
     43 H8         -3.9701   -0.9351   -2.7213 H         1 <0>         0.0648
     44 H9         -2.9575   -2.3828   -2.3964 H         1 <0>         0.0701
     45 H10        -3.4450   -1.9871   -4.0794 H         1 <0>         0.0697
     46 H11        -2.8550    3.1787   -2.9653 H         1 <0>         0.0899
     47 H12        -2.2143    3.2289   -1.2879 H         1 <0>         0.0948
     48 H13         0.3033    5.7074   -3.0981 H         1 <0>         0.1133
     49 H14         0.1904    5.1792   -1.3850 H         1 <0>         0.1228
     50 H15        -5.4581   10.5616    1.3619 H         1 <0>         0.1856
     51 H16        -6.8502   12.0831    5.0932 H         1 <0>         0.1796
     52 H17        -4.4931    8.3012    6.3003 H         1 <0>         0.1328
     53 H18        -3.2351    8.2254    5.0202 H         1 <0>         0.1077
     54 H19        -4.7322    7.2446    4.8674 H         1 <0>         0.0976
@<TRIPOS>BOND
     1    1    2 1
     2    1   37 1
     3    1   38 1
     4    1   39 1
     5    2    7 ar
     6    2    3 ar
     7    3    4 ar
     8    3   40 1
     9    4    5 ar
    10    4   41 1
    11    5    6 ar
    12    5    9 1
    13    6    7 ar
    14    6   42 1
    15    7    8 1
    16    8   43 1
    17    8   44 1
    18    8   45 1
    19    9   14 am
    20    9   10 1
    21   10   11 1
    22   10   46 1
    23   10   47 1
    24   11   12 1
    25   11   13 1
    26   11   16 1
    27   13   14 1
    28   13   48 1
    29   13   49 1
    30   14   15 2
    31   16   20 1
    32   16   17 2
    33   17   18 1
    34   18   19 2
    35   19   20 1
    36   19   21 1
    37   21   22 2
    38   22   23 1
    39   22   24 1
    40   24   29 ar
    41   24   25 ar
    42   25   26 ar
    43   25   50 1
    44   26   27 ar
    45   26   34 1
    46   27   28 ar
    47   27   51 1
    48   28   29 ar
    49   28   31 1
    50   29   30 1
    51   30   52 1
    52   30   53 1
    53   30   54 1
    54   31   32 2
    55   31   33 1
    56   34   35 2
    57   34   36 1
@<TRIPOS>MOLECULE
ZINC35565864
   53    56     0     0     0
SMALL
USER_CHARGES

@<TRIPOS>ATOM
      1 C1         -0.5275    1.5652   -0.0286 C.3       1 <0>        -0.0856
      2 C2         -1.5496    0.6102   -0.5893 C.2       1 <0>         0.1198
      3 C3         -1.2799   -0.1879   -1.6951 C.2       1 <0>        -0.2611
      4 S1         -2.8312   -1.0583   -1.8537 S.3       1 <0>         0.1648
      5 C4         -3.6300   -0.3488   -0.5534 C.2       1 <0>         0.0360
      6 N1         -2.7398    0.4814   -0.0591 N.2       1 <0>        -0.5244
      7 C5         -5.0327   -0.6086   -0.0674 C.3       1 <0>        -0.0633
      8 C6         -0.0617   -0.2868   -2.5056 C.2       1 <0>         0.5541
      9 O1          0.8719    0.4674   -2.2967 O.2       1 <0>        -0.4484
     10 C7          0.0326   -1.2944   -3.5685 C.2       1 <0>        -0.4971
     11 C8          0.1163   -1.0593   -4.8984 C.2       1 <0>         0.2809
     12 C9          0.1948   -2.3469   -5.6154 C.2       1 <0>         0.5109
     13 O2          0.2789   -2.4691   -6.8215 O.2       1 <0>        -0.4533
     14 N2          0.1598   -3.3654   -4.7370 N.am      1 <0>        -0.5079
     15 C10         0.0616   -2.7943   -3.3885 C.3       1 <0>         0.2695
     16 H1         -0.8559   -3.1319   -2.9065 H         1 <0>         0.0890
     17 C11         1.2583   -3.1945   -2.5647 C.ar      1 <0>        -0.1445
     18 C12         1.1040   -3.5708   -1.2390 C.ar      1 <0>        -0.0617
     19 C13         2.2330   -3.9310   -0.5196 C.ar      1 <0>        -0.1706
     20 C14         3.4662   -3.9032   -1.1433 C.ar      1 <0>         0.0960
     21 N3          3.5754   -3.5394   -2.4059 N.ar      1 <0>        -0.4796
     22 C15         2.5226   -3.1964   -3.1224 C.ar      1 <0>         0.1300
     23 C16         0.2125   -4.7106   -5.0488 C.2       1 <0>         0.3404
     24 N4          0.3116   -5.2698   -6.2417 N.2       1 <0>        -0.5534
     25 C17         0.3515   -6.5695   -6.3866 C.2       1 <0>         0.2197
     26 C18         0.2841   -7.3222   -5.2209 C.2       1 <0>        -0.3365
     27 S2          0.1729   -6.0251   -3.9986 S.3       1 <0>         0.1871
     28 C19         0.3034   -8.7728   -5.0439 C.2       1 <0>         0.5724
     29 O3          0.3895   -9.5029   -6.0133 O.2       1 <0>        -0.5031
     30 O4          0.2257   -9.3023   -3.8052 O.3       1 <0>        -0.3458
     31 C20         0.2501  -10.7277   -3.7063 C.3       1 <0>         0.0952
     32 C21         0.1546  -11.1324   -2.2579 C.2       1 <0>        -0.1558
     33 C22        -0.6543  -12.0986   -1.8997 C.2       1 <0>        -0.1711
     34 C23         0.4640   -7.2147   -7.7438 C.3       1 <0>        -0.0917
     35 O5          0.1258    0.1635   -5.4793 O.3       1 <0>        -0.6250
     36 H2          0.0735    1.0538    0.7234 H         1 <0>         0.0748
     37 H3          0.1190    1.9183   -0.8319 H         1 <0>         0.0946
     38 H4         -1.0359    2.4142    0.4285 H         1 <0>         0.0705
     39 H5         -5.0189   -1.4113    0.6698 H         1 <0>         0.0878
     40 H6         -5.4326    0.2969    0.3889 H         1 <0>         0.0894
     41 H7         -5.6609   -0.8992   -0.9093 H         1 <0>         0.0850
     42 H8          0.1275   -3.5828   -0.7778 H         1 <0>         0.1339
     43 H9          2.1500   -4.2292    0.5151 H         1 <0>         0.1350
     44 H10         4.3506   -4.1823   -0.5898 H         1 <0>         0.1537
     45 H11         2.6506   -2.9092   -4.1556 H         1 <0>         0.1458
     46 H12        -0.5934  -11.1446   -4.2565 H         1 <0>         0.0743
     47 H13         1.1815  -11.1053   -4.1284 H         1 <0>         0.0791
     48 H14         0.7530  -10.6260   -1.5150 H         1 <0>         0.1214
     49 H15        -1.2528  -12.6050   -2.6425 H         1 <0>         0.0998
     50 H16        -0.7228  -12.3887   -0.8617 H         1 <0>         0.1082
     51 H17         1.5158   -7.3474   -7.9970 H         1 <0>         0.0853
     52 H18        -0.0309   -8.1858   -7.7267 H         1 <0>         0.0944
     53 H19        -0.0116   -6.5777   -8.4895 H         1 <0>         0.0811
@<TRIPOS>BOND
     1    1    2 1
     2    1   36 1
     3    1   37 1
     4    1   38 1
     5    2    6 1
     6    2    3 2
     7    3    4 1
     8    3    8 1
     9    4    5 1
    10    5    6 2
    11    5    7 1
    12    7   39 1
    13    7   40 1
    14    7   41 1
    15    8    9 2
    16    8   10 1
    17   10   15 1
    18   10   11 2
    19   11   12 1
    20   11   35 1
    21   12   13 2
    22   12   14 am
    23   14   15 1
    24   14   23 1
    25   15   16 1
    26   15   17 1
    27   17   22 ar
    28   17   18 ar
    29   18   19 ar
    30   18   42 1
    31   19   20 ar
    32   19   43 1
    33   20   21 ar
    34   20   44 1
    35   21   22 ar
    36   22   45 1
    37   23   27 1
    38   23   24 2
    39   24   25 1
    40   25   26 2
    41   25   34 1
    42   26   27 1
    43   26   28 1
    44   28   29 2
    45   28   30 1
    46   30   31 1
    47   31   32 1
    48   31   46 1
    49   31   47 1
    50   32   33 2
    51   32   48 1
    52   33   49 1
    53   33   50 1
    54   34   51 1
    55   34   52 1
    56   34   53 1
@<TRIPOS>MOLECULE
ZINC38255907
   57    61     0     0     0
SMALL
USER_CHARGES

@<TRIPOS>ATOM
      1 C1          0.9737    0.4920   -1.1835 C.3       1 <0>        -0.0912
      2 C2          1.0741   -0.9698   -0.8314 C.2       1 <0>         0.2191
      3 C3          1.5390   -1.9120   -1.7402 C.2       1 <0>        -0.3394
      4 S1          1.4225   -3.3997   -0.7592 S.3       1 <0>         0.1948
      5 C4          0.8197   -2.7038    0.6495 C.2       1 <0>         0.3411
      6 N1          0.7335   -1.4202    0.3489 N.2       1 <0>        -0.5550
      7 N2          0.4964   -3.3265    1.8401 N.am      1 <0>        -0.5089
      8 C5          0.6228   -4.7603    2.1269 C.3       1 <0>         0.3023
      9 H1         -0.0021   -5.3357    1.4440 H         1 <0>         0.1111
     10 C6          0.1483   -4.9484    3.5490 C.2       1 <0>        -0.4980
     11 C7          0.0867   -6.2116    4.2905 C.2       1 <0>         0.5115
     12 C8         -0.8191   -7.2874    3.8419 C.ar      1 <0>        -0.1652
     13 C9         -1.6987   -7.0698    2.7768 C.ar      1 <0>        -0.0329
     14 C10        -2.5384   -8.0738    2.3577 C.ar      1 <0>        -0.1515
     15 C11        -2.5232   -9.3187    2.9900 C.ar      1 <0>         0.1210
     16 C12        -1.6508   -9.5270    4.0551 C.ar      1 <0>        -0.1896
     17 C13        -0.8004   -8.5347    4.4751 C.ar      1 <0>        -0.0207
     18 C14        -1.8790  -10.9445    4.5443 C.3       1 <0>        -0.1036
     19 C15        -3.2288  -11.2991    3.8769 C.3       1 <0>         0.0765
     20 H2         -3.2463  -12.3460    3.5737 H         1 <0>         0.1138
     21 O1         -3.2531  -10.4357    2.7279 O.3       1 <0>        -0.3003
     22 C16        -4.3958  -10.9899    4.8168 C.3       1 <0>        -0.1723
     23 O2          0.7824   -6.3732    5.2760 O.2       1 <0>        -0.4661
     24 C17        -0.2087   -3.7251    4.0064 C.2       1 <0>         0.2812
     25 O3         -0.6892   -3.4602    5.2432 O.3       1 <0>        -0.6255
     26 C18         0.0156   -2.7248    2.9432 C.2       1 <0>         0.5125
     27 O4         -0.2039   -1.5344    3.0484 O.2       1 <0>        -0.4551
     28 C19         2.0619   -5.1893    1.9998 C.2       1 <0>        -0.0143
     29 C20         2.4949   -6.3358    1.4455 C.2       1 <0>        -0.1986
     30 C21         3.9057   -6.3283    1.5380 C.2       1 <0>        -0.2111
     31 C22         4.2504   -5.1776    2.1433 C.2       1 <0>        -0.0416
     32 O5          3.1299   -4.4890    2.4155 O.3       1 <0>        -0.1608
     33 C23         1.9963   -1.7349   -3.1170 C.2       1 <0>         0.5727
     34 O6          2.0021   -0.6264   -3.6182 O.2       1 <0>        -0.5041
     35 O7          2.4120   -2.8009   -3.8322 O.3       1 <0>        -0.3454
     36 C24         2.8455   -2.5546   -5.1714 C.3       1 <0>         0.0953
     37 C25         3.2695   -3.8525   -5.8089 C.2       1 <0>        -0.1556
     38 C26         2.8833   -4.1409   -7.0270 C.2       1 <0>        -0.1714
     39 H3          1.9104    0.9908   -0.9348 H         1 <0>         0.0846
     40 H4          0.7789    0.5961   -2.2509 H         1 <0>         0.0942
     41 H5          0.1591    0.9465   -0.6195 H         1 <0>         0.0807
     42 H6         -1.7186   -6.1098    2.2824 H         1 <0>         0.1405
     43 H7         -3.2148   -7.8986    1.5342 H         1 <0>         0.1302
     44 H8         -0.1216   -8.7151    5.2955 H         1 <0>         0.1323
     45 H9         -1.0869  -11.6084    4.1980 H         1 <0>         0.0892
     46 H10        -1.9621  -10.9730    5.6307 H         1 <0>         0.0914
     47 H11        -4.3930   -9.9279    5.0623 H         1 <0>         0.0653
     48 H12        -5.3349  -11.2470    4.3269 H         1 <0>         0.0665
     49 H13        -4.2909  -11.5743    5.7309 H         1 <0>         0.0743
     50 H14         1.8824   -7.1133    1.0132 H         1 <0>         0.1490
     51 H15         4.5776   -7.0988    1.1898 H         1 <0>         0.1467
     52 H16         5.2576   -4.8595    2.3686 H         1 <0>         0.1982
     53 H17         2.0266   -2.1190   -5.7440 H         1 <0>         0.0742
     54 H18         3.6882   -1.8634   -5.1591 H         1 <0>         0.0788
     55 H19         3.8919   -4.5450   -5.2616 H         1 <0>         0.1216
     56 H20         2.2609   -3.4485   -7.5743 H         1 <0>         0.0997
     57 H21         3.1872   -5.0711   -7.4839 H         1 <0>         0.1081
@<TRIPOS>BOND
     1    1    2 1
     2    1   39 1
     3    1   40 1
     4    1   41 1
     5    2    6 1
     6    2    3 2
     7    3    4 1
     8    3   33 1
     9    4    5 1
    10    5    6 2
    11    5    7 1
    12    7   26 am
    13    7    8 1
    14    8   10 1
    15    8   28 1
    16    8    9 1
    17   10   24 2
    18   10   11 1
    19   11   23 2
    20   11   12 1
    21   12   17 ar
    22   12   13 ar
    23   13   14 ar
    24   13   42 1
    25   14   15 ar
    26   14   43 1
    27   15   21 1
    28   15   16 ar
    29   16   17 ar
    30   16   18 1
    31   17   44 1
    32   18   19 1
    33   18   45 1
    34   18   46 1
    35   19   20 1
    36   19   21 1
    37   19   22 1
    38   22   47 1
    39   22   48 1
    40   22   49 1
    41   24   26 1
    42   24   25 1
    43   26   27 2
    44   28   32 1
    45   28   29 2
    46   29   30 1
    47   29   50 1
    48   30   31 2
    49   30   51 1
    50   31   32 1
    51   31   52 1
    52   33   34 2
    53   33   35 1
    54   35   36 1
    55   36   37 1
    56   36   53 1
    57   36   54 1
    58   37   38 2
    59   37   55 1
    60   38   56 1
    61   38   57 1
@<TRIPOS>MOLECULE
ZINC39848856
   60    64     0     0     0
SMALL
USER_CHARGES

@<TRIPOS>ATOM
      1 C1         -0.2314    1.4159   -1.6810 C.3       1 <0>        -0.1489
      2 C2         -0.1110   -0.0804   -1.3852 C.3       1 <0>         0.0530
      3 O1         -1.4067   -0.6178   -1.1122 O.3       1 <0>        -0.3082
      4 C3         -1.4768   -1.9458   -0.8276 C.ar      1 <0>         0.0955
      5 C4         -0.3233   -2.7132   -0.8058 C.ar      1 <0>        -0.1709
      6 C5         -0.3963   -4.0628   -0.5158 C.ar      1 <0>        -0.0858
      7 C6         -1.6188   -4.6502   -0.2475 C.ar      1 <0>        -0.0604
      8 C7         -2.7735   -3.8904   -0.2680 C.ar      1 <0>        -0.1478
      9 C8         -2.7066   -2.5358   -0.5519 C.ar      1 <0>         0.0964
     10 O2         -3.8409   -1.7857   -0.5666 O.3       1 <0>        -0.3095
     11 C9         -5.0523   -2.4338   -0.1734 C.3       1 <0>         0.0274
     12 C10        -1.6927   -6.1220    0.0675 C.3       1 <0>         0.2707
     13 H1         -2.6748   -6.3699    0.4702 H         1 <0>         0.0838
     14 C11        -1.4216   -6.9341   -1.1774 C.2       1 <0>        -0.4848
     15 C12        -0.3202   -7.6806   -0.9244 C.2       1 <0>         0.2713
     16 C13         0.1544   -7.3965    0.4449 C.2       1 <0>         0.5112
     17 O3          1.1242   -7.9099    0.9671 O.2       1 <0>        -0.4909
     18 N1         -0.6461   -6.4854    1.0301 N.am      1 <0>        -0.5062
     19 C14        -0.5065   -5.9787    2.3145 C.2       1 <0>         0.3059
     20 N2         -1.2614   -5.0948    2.9314 N.2       1 <0>        -0.5570
     21 C15        -0.9938   -4.7123    4.1657 C.2       1 <0>         0.0690
     22 C16         0.0886   -5.2702    4.7629 C.2       1 <0>        -0.2895
     23 S1          0.6652   -6.3509    3.4639 S.3       1 <0>         0.1503
     24 O4          0.2537   -8.5492   -1.7886 O.3       1 <0>        -0.6350
     25 C17        -2.2002   -6.9177   -2.4188 C.2       1 <0>         0.5042
     26 O5         -1.6853   -6.5409   -3.4552 O.2       1 <0>        -0.4663
     27 C18        -3.6098   -7.3582   -2.4122 C.ar      1 <0>        -0.1433
     28 C19        -4.1668   -7.8998   -1.2386 C.ar      1 <0>        -0.0525
     29 C20        -5.4589   -8.3112   -1.2084 C.ar      1 <0>        -0.1360
     30 C21        -6.2615   -8.1994   -2.3602 C.ar      1 <0>         0.0031
     31 C22        -7.6002   -8.6189   -2.3502 C.ar      1 <0>        -0.1570
     32 C23        -8.3598   -8.4963   -3.4924 C.ar      1 <0>         0.1276
     33 C24        -7.8111   -7.9589   -4.6617 C.ar      1 <0>        -0.2014
     34 C25        -6.5170   -7.5452   -4.6991 C.ar      1 <0>        -0.0526
     35 C26        -5.7121   -7.6549   -3.5496 C.ar      1 <0>        -0.0938
     36 C27        -4.3763   -7.2300   -3.5609 C.ar      1 <0>        -0.0426
     37 O6         -9.6558   -8.9021   -3.4837 O.3       1 <0>        -0.3185
     38 C28       -10.3917   -8.7492   -4.6991 C.3       1 <0>         0.0272
     39 H2          0.7569    1.8258   -1.8892 H         1 <0>         0.0747
     40 H3         -0.8762    1.5642   -2.5473 H         1 <0>         0.0649
     41 H4         -0.6608    1.9236   -0.8173 H         1 <0>         0.0640
     42 H5          0.3184   -0.5882   -2.2489 H         1 <0>         0.0600
     43 H6          0.5338   -0.2288   -0.5189 H         1 <0>         0.0579
     44 H7          0.6328   -2.2569   -1.0157 H         1 <0>         0.1295
     45 H8          0.5035   -4.6598   -0.4992 H         1 <0>         0.1168
     46 H9         -3.7273   -4.3518   -0.0585 H         1 <0>         0.1324
     47 H10        -5.2406   -3.2821   -0.8314 H         1 <0>         0.0537
     48 H11        -4.9596   -2.7846    0.8544 H         1 <0>         0.0540
     49 H12        -5.8807   -1.7288   -0.2434 H         1 <0>         0.0947
     50 H13        -1.6092   -3.9871    4.6775 H         1 <0>         0.1682
     51 H14         0.4891   -5.1083    5.7528 H         1 <0>         0.1904
     52 H15        -3.5578   -7.9892   -0.3512 H         1 <0>         0.1343
     53 H16        -5.8724   -8.7251   -0.3006 H         1 <0>         0.1289
     54 H17        -8.0323   -9.0356   -1.4524 H         1 <0>         0.1334
     55 H18        -8.4239   -7.8719   -5.5467 H         1 <0>         0.1281
     56 H19        -6.1069   -7.1329   -5.6092 H         1 <0>         0.1319
     57 H20        -3.9463   -6.8098   -4.4581 H         1 <0>         0.1364
     58 H21       -11.4098   -9.1110   -4.5553 H         1 <0>         0.0980
     59 H22       -10.4164   -7.6960   -4.9788 H         1 <0>         0.0548
     60 H23        -9.9101   -9.3240   -5.4901 H         1 <0>         0.0549
@<TRIPOS>BOND
     1    1    2 1
     2    1   39 1
     3    1   40 1
     4    1   41 1
     5    2    3 1
     6    2   42 1
     7    2   43 1
     8    3    4 1
     9    4    9 ar
    10    4    5 ar
    11    5    6 ar
    12    5   44 1
    13    6    7 ar
    14    6   45 1
    15    7    8 ar
    16    7   12 1
    17    8    9 ar
    18    8   46 1
    19    9   10 1
    20   10   11 1
    21   11   47 1
    22   11   48 1
    23   11   49 1
    24   12   13 1
    25   12   18 1
    26   12   14 1
    27   14   15 2
    28   14   25 1
    29   15   16 1
    30   15   24 1
    31   16   17 2
    32   16   18 am
    33   18   19 1
    34   19   23 1
    35   19   20 2
    36   20   21 1
    37   21   22 2
    38   21   50 1
    39   22   23 1
    40   22   51 1
    41   25   26 2
    42   25   27 1
    43   27   36 ar
    44   27   28 ar
    45   28   29 ar
    46   28   52 1
    47   29   30 ar
    48   29   53 1
    49   30   35 ar
    50   30   31 ar
    51   31   32 ar
    52   31   54 1
    53   32   33 ar
    54   32   37 1
    55   33   34 ar
    56   33   55 1
    57   34   35 ar
    58   34   56 1
    59   35   36 ar
    60   36   57 1
    61   37   38 1
    62   38   58 1
    63   38   59 1
    64   38   60 1
@<TRIPOS>MOLECULE
ZINC47145916
   57    61     0     0     0
SMALL
USER_CHARGES

@<TRIPOS>ATOM
      1 C1          0.0664    1.4845   -0.0945 C.3       1 <0>        -0.1525
      2 C2          0.0857   -0.0454   -0.0932 C.3       1 <0>         0.0610
      3 O1          0.7644   -0.5123    1.0745 O.3       1 <0>        -0.3487
      4 C3          0.8694   -1.8467    1.2285 C.2       1 <0>         0.5133
      5 O2          0.3977   -2.5936    0.3943 O.2       1 <0>        -0.5072
      6 C4          1.5571   -2.4009    2.4100 C.ar      1 <0>        -0.1468
      7 C5          2.0955   -1.5434    3.3736 C.ar      1 <0>        -0.0363
      8 C6          2.7367   -2.0645    4.4751 C.ar      1 <0>        -0.1595
      9 C7          2.8492   -3.4420    4.6294 C.ar      1 <0>         0.1692
     10 C8          2.3148   -4.2984    3.6728 C.ar      1 <0>        -0.1556
     11 C9          1.6671   -3.7850    2.5715 C.ar      1 <0>        -0.0290
     12 N1          3.5013   -3.9672    5.7487 N.am      1 <0>        -0.5338
     13 C10         3.6538   -5.3001    5.9636 C.2       1 <0>         0.5513
     14 O3          3.4536   -6.1936    5.1693 O.2       1 <0>        -0.4298
     15 C11         4.1188   -5.4422    7.3788 C.3       1 <0>        -0.1143
     16 H1          3.2574   -5.4520    8.0465 H         1 <0>         0.1397
     17 C12         5.0469   -6.5780    7.7347 C.3       1 <0>         0.0979
     18 H2          5.9327   -6.5407    7.1005 H         1 <0>         0.0832
     19 C13         5.4482   -6.4289    9.1720 C.2       1 <0>        -0.3217
     20 C14         5.4060   -5.3258    9.9777 C.2       1 <0>         0.1509
     21 N2          5.8125   -5.5302   11.2288 N.2       1 <0>        -0.6368
     22 C15         6.2388   -6.7034   11.6379 C.2       1 <0>         0.4254
     23 O4          6.6817   -7.0549   12.8697 O.3       1 <0>        -0.6242
     24 S1          6.1015   -7.6658   10.2622 S.3       1 <0>        -0.0713
     25 S2          4.8529   -3.7499    9.3428 S.3       1 <0>        -0.0145
     26 C16         4.9007   -4.1063    7.5575 C.3       1 <0>        -0.1378
     27 H3          5.9197   -4.1790    7.1774 H         1 <0>         0.1556
     28 C17         4.0476   -3.1937    6.7218 C.2       1 <0>         0.5672
     29 O5          3.8796   -2.0045    6.8858 O.2       1 <0>        -0.4351
     30 C18         4.3377   -7.8932    7.5389 C.ar      1 <0>        -0.1178
     31 C19         3.1832   -8.1668    8.2491 C.ar      1 <0>        -0.0478
     32 C20         2.5307   -9.3711    8.0720 C.ar      1 <0>        -0.1929
     33 C21         3.0356  -10.3081    7.1794 C.ar      1 <0>         0.2106
     34 C22         4.1956  -10.0300    6.4676 C.ar      1 <0>        -0.1974
     35 C23         4.8399   -8.8214    6.6452 C.ar      1 <0>        -0.0498
     36 N3          2.3785  -11.5272    6.9982 N.pl3     1 <0>        -0.6424
     37 C24         1.2290  -11.8718    7.8386 C.3       1 <0>         0.0968
     38 C25         2.8389  -12.4614    5.9679 C.3       1 <0>         0.0926
     39 H4          1.0894    1.8607   -0.0940 H         1 <0>         0.0673
     40 H5         -0.4513    1.8406   -0.9851 H         1 <0>         0.0793
     41 H6         -0.4527    1.8420    0.7948 H         1 <0>         0.0675
     42 H7         -0.9373   -0.4217   -0.0937 H         1 <0>         0.0680
     43 H8          0.6048   -0.4030   -0.9825 H         1 <0>         0.0680
     44 H9          2.0089   -0.4735    3.2543 H         1 <0>         0.1456
     45 H10         3.1533   -1.4025    5.2199 H         1 <0>         0.1632
     46 H11         2.4041   -5.3677    3.7960 H         1 <0>         0.1651
     47 H12         1.2481   -4.4507    1.8315 H         1 <0>         0.1448
     48 H13         2.7914   -7.4380    8.9432 H         1 <0>         0.1166
     49 H14         1.6293   -9.5843    8.6273 H         1 <0>         0.1173
     50 H15         4.5910  -10.7564    5.7730 H         1 <0>         0.1191
     51 H16         5.7394   -8.6027    6.0889 H         1 <0>         0.1166
     52 H17         0.3136  -11.5163    7.3655 H         1 <0>         0.0436
     53 H18         1.1789  -12.9538    7.9597 H         1 <0>         0.0618
     54 H19         1.3394  -11.4015    8.8157 H         1 <0>         0.0685
     55 H20         3.7503  -12.0771    5.5101 H         1 <0>         0.0776
     56 H21         3.0413  -13.4317    6.4215 H         1 <0>         0.0512
     57 H22         2.0675  -12.5706    5.2056 H         1 <0>         0.0471
@<TRIPOS>BOND
     1    1    2 1
     2    1   39 1
     3    1   40 1
     4    1   41 1
     5    2    3 1
     6    2   42 1
     7    2   43 1
     8    3    4 1
     9    4    5 2
    10    4    6 1
    11    6   11 ar
    12    6    7 ar
    13    7    8 ar
    14    7   44 1
    15    8    9 ar
    16    8   45 1
    17    9   10 ar
    18    9   12 1
    19   10   11 ar
    20   10   46 1
    21   11   47 1
    22   12   28 am
    23   12   13 am
    24   13   14 2
    25   13   15 1
    26   15   16 1
    27   15   26 1
    28   15   17 1
    29   17   18 1
    30   17   19 1
    31   17   30 1
    32   19   24 1
    33   19   20 2
    34   20   21 1
    35   20   25 1
    36   21   22 2
    37   22   23 1
    38   22   24 1
    39   25   26 1
    40   26   27 1
    41   26   28 1
    42   28   29 2
    43   30   35 ar
    44   30   31 ar
    45   31   32 ar
    46   31   48 1
    47   32   33 ar
    48   32   49 1
    49   33   34 ar
    50   33   36 1
    51   34   35 ar
    52   34   50 1
    53   35   51 1
    54   36   37 1
    55   36   38 1
    56   37   52 1
    57   37   53 1
    58   37   54 1
    59   38   55 1
    60   38   56 1
    61   38   57 1
@<TRIPOS>MOLECULE
ZINC13193063
   52    56     0     0     0
SMALL
USER_CHARGES
3-[3-[2-[(5S)-3,5-bis(2-furyl)-4,5-dihydropyrazol-1-yl]-2-oxo-ethyl]sulfanyl-5-(2-thienyl)-1,2,4-triazol-4-yl]propanoic acid
@<TRIPOS>ATOM
      1 C1          5.1853    6.6767   -2.6620 C.2       1 <0>        -0.2137
      2 C2          4.9999    6.2640   -1.3225 C.2       1 <0>        -0.1815
      3 C3          3.7603    5.7481   -1.2417 C.2       1 <0>        -0.0297
      4 O1          3.1904    5.8207   -2.4556 O.3       1 <0>        -0.1672
      5 C4          4.0479    6.3883   -3.3196 C.2       1 <0>        -0.0274
      6 C5          3.1217    5.1792   -0.0009 C.3       1 <0>         0.1954
      7 H1          3.5981    5.5815    0.8931 H         1 <0>         0.1294
      8 C6          3.1972    3.6396   -0.0093 C.3       1 <0>        -0.1233
      9 C7          1.7496    3.2033    0.0021 C.2       1 <0>         0.1751
     10 N1          0.9860    4.2448    0.0090 N.2       1 <0>        -0.2104
     11 N2          1.6764    5.4551    0.0141 N.am      1 <0>        -0.4584
     12 C8          1.1123    6.6790    0.0260 C.2       1 <0>         0.5787
     13 O2          1.8126    7.6698    0.0248 O.2       1 <0>        -0.4855
     14 C9         -0.3883    6.8170    0.0408 C.3       1 <0>        -0.1369
     15 S1         -0.8328    8.5715    0.0545 S.3       1 <0>         0.0905
     16 C10        -2.5899    8.4419    0.0703 C.2       1 <0>         0.1479
     17 N3         -3.2889    7.3298    0.0650 N.2       1 <0>        -0.2910
     18 N4         -4.5458    7.5968    0.0827 N.2       1 <0>        -0.2621
     19 C11        -4.7279    8.8989    0.0919 C.2       1 <0>         0.2630
     20 N5         -3.4794    9.4803    0.0842 N.pl3     1 <0>        -0.4453
     21 C12        -3.1691   10.9121    0.0898 C.3       1 <0>         0.1174
     22 C13        -3.0733   11.4188   -1.3507 C.3       1 <0>        -0.1729
     23 C14        -2.7542   12.8916   -1.3450 C.2       1 <0>         0.4726
     24 O3         -2.6174   13.4760   -0.2963 O.co2     1 <0>        -0.6353
     25 C15        -6.0209    9.6020    0.1075 C.2       1 <0>        -0.0997
     26 C16        -7.2738    9.1139   -0.1654 C.2       1 <0>        -0.1074
     27 C17        -8.3490    9.9697   -0.0808 C.2       1 <0>        -0.1618
     28 C18        -8.1371   11.2680    0.2572 C.2       1 <0>        -0.1717
     29 S2         -6.3664   11.3138    0.4788 S.3       1 <0>         0.1068
     30 C19         1.2846    1.8130   -0.0005 C.2       1 <0>         0.0258
     31 C20        -0.0170    1.4028    0.0098 C.2       1 <0>        -0.1357
     32 C21         0.0021   -0.0041    0.0020 C.2       1 <0>        -0.2162
     33 C22         1.2964   -0.3830   -0.0124 C.2       1 <0>        -0.0119
     34 O4          2.0681    0.7159   -0.0138 O.3       1 <0>        -0.1654
     35 H2          6.0705    7.1351   -3.0776 H         1 <0>         0.1513
     36 H3          5.7164    6.3465   -0.5186 H         1 <0>         0.1507
     37 H4          3.8578    6.5774   -4.3658 H         1 <0>         0.2047
     38 H5          3.7127    3.2773    0.8801 H         1 <0>         0.1184
     39 H6          3.6958    3.2863   -0.9119 H         1 <0>         0.1137
     40 H7         -0.8055    6.3434   -0.8478 H         1 <0>         0.1331
     41 H8         -0.7888    6.3338    0.9320 H         1 <0>         0.1330
     42 H9         -3.9576   11.4526    0.6134 H         1 <0>         0.1008
     43 H10        -2.2181   11.0758    0.5965 H         1 <0>         0.1073
     44 H11        -2.2849   10.8782   -1.8743 H         1 <0>         0.0777
     45 H12        -4.0244   11.2550   -1.8574 H         1 <0>         0.0736
     46 H13        -7.4142    8.0783   -0.4378 H         1 <0>         0.1431
     47 H14        -9.3481    9.6141   -0.2853 H         1 <0>         0.1389
     48 H15        -8.8555   12.0673    0.3646 H         1 <0>         0.1900
     49 H16        -0.8922    2.0355    0.0175 H         1 <0>         0.1620
     50 H17        -0.8578   -0.6575    0.0064 H         1 <0>         0.1570
     51 H18         1.6534   -1.4023   -0.0209 H         1 <0>         0.2114
     52 O5         -2.6219   13.5541   -2.5048 O.co2     1 <0>        -0.7588
@<TRIPOS>BOND
     1    1    5 2
     2    1    2 1
     3    1   35 1
     4    2    3 2
     5    2   36 1
     6    3    4 1
     7    3    6 1
     8    4    5 1
     9    5   37 1
    10    6    7 1
    11    6   11 1
    12    6    8 1
    13    8    9 1
    14    8   38 1
    15    8   39 1
    16    9   10 2
    17    9   30 1
    18   10   11 1
    19   11   12 am
    20   12   13 2
    21   12   14 1
    22   14   15 1
    23   14   40 1
    24   14   41 1
    25   15   16 1
    26   16   20 1
    27   16   17 2
    28   17   18 1
    29   18   19 2
    30   19   20 1
    31   19   25 1
    32   20   21 1
    33   21   22 1
    34   21   42 1
    35   21   43 1
    36   22   23 1
    37   22   44 1
    38   22   45 1
    39   23   24 2
    40   23   52 1
    41   25   29 1
    42   25   26 2
    43   26   27 1
    44   26   46 1
    45   27   28 2
    46   27   47 1
    47   28   29 1
    48   28   48 1
    49   30   34 1
    50   30   31 2
    51   31   32 1
    52   31   49 1
    53   32   33 2
    54   32   50 1
    55   33   34 1
    56   33   51 1
@<TRIPOS>MOLECULE
ZINC01105744
   60    64     0     0     0
SMALL
USER_CHARGES
(4Z,5R)-5-(4-fluorophenyl)-4-[hydroxy-(4-pyrrolidin-1-ylsulfonylphenyl)methylene]-1-(3-pyridylmethyl)pyrrolidine-2,3-dione
@<TRIPOS>ATOM
      1 C1         -1.6920    6.2002   -2.8769 C.ar      1 <0>        -0.1786
      2 C2         -0.3141    6.1886   -2.7217 C.ar      1 <0>        -0.0545
      3 C3          0.3161    4.9717   -2.5127 C.ar      1 <0>        -0.1574
      4 C4         -0.4439    3.8178   -2.4717 C.ar      1 <0>         0.1259
      5 N1         -1.7533    3.8672   -2.6186 N.ar      1 <0>        -0.4795
      6 C5         -2.3862    5.0068   -2.8187 C.ar      1 <0>         0.0964
      7 C6          1.8117    4.9068   -2.3387 C.3       1 <0>         0.1720
      8 N2          2.1444    5.0414   -0.9183 N.am      1 <0>        -0.5959
      9 C7          2.2714    3.9349    0.0346 C.3       1 <0>         0.2547
     10 H1          3.0460    3.2354   -0.3128 H         1 <0>         0.0738
     11 C8          2.6229    4.5499    1.3695 C.2       1 <0>        -0.4936
     12 C9          2.8393    3.8837    2.5579 C.2       1 <0>         0.3732
     13 C10         2.8698    2.4106    2.5817 C.ar      1 <0>        -0.0022
     14 C11         2.1323    1.7078    3.5399 C.ar      1 <0>        -0.1074
     15 C12         2.1621    0.3294    3.5527 C.ar      1 <0>        -0.0216
     16 C13         2.9277   -0.3585    2.6272 C.ar      1 <0>        -0.6832
     17 C14         3.6646    0.3302    1.6791 C.ar      1 <0>        -0.0279
     18 C15         3.6409    1.7084    1.6500 C.ar      1 <0>        -0.1230
     19 S1          2.9651   -2.1198    2.6564 S.o2      1 <0>         2.7082
     20 O1          1.7649   -2.5410    3.2900 O.2       1 <0>        -0.9567
     21 O2          3.3234   -2.5402    1.3472 O.2       1 <0>        -0.9569
     22 N3          4.2090   -2.5667    3.6541 N.pl3     1 <0>        -1.0157
     23 C16         5.5988   -2.8037    3.2373 C.3       1 <0>         0.1137
     24 C17         6.3897   -3.2205    4.4952 C.3       1 <0>        -0.1321
     25 C18         5.2799   -3.7510    5.4409 C.3       1 <0>        -0.1232
     26 C19         4.1047   -2.7989    5.1062 C.3       1 <0>         0.1163
     27 O3          3.0232    4.5811    3.6990 O.2       1 <0>        -0.6034
     28 C20         2.6846    5.9377    1.1547 C.2       1 <0>         0.3775
     29 O4          2.9415    6.7798    1.9957 O.3       1 <0>        -0.4713
     30 C21         2.3814    6.1989   -0.2788 C.2       1 <0>         0.4791
     31 O5          2.3529    7.2974   -0.7949 O.2       1 <0>        -0.5271
     32 C22         0.9654    3.1901    0.1376 C.ar      1 <0>        -0.0892
     33 C23         0.9414    1.8151   -0.0033 C.ar      1 <0>        -0.0892
     34 C24        -0.2555    1.1309    0.0919 C.ar      1 <0>        -0.1549
     35 C25        -1.4319    1.8238    0.3227 C.ar      1 <0>         0.1018
     36 C26        -1.4060    3.2004    0.4684 C.ar      1 <0>        -0.1441
     37 C27        -0.2078    3.8824    0.3732 C.ar      1 <0>        -0.0585
     38 F1         -2.6034    1.1565    0.4104 F         1 <0>        -0.1450
     39 H2         -2.2159    7.1301   -3.0417 H         1 <0>         0.1304
     40 H3          0.2545    7.1059   -2.7622 H         1 <0>         0.1349
     41 H4          0.0399    2.8653   -2.3134 H         1 <0>         0.1487
     42 H5         -3.4596    5.0073   -2.9387 H         1 <0>         0.1500
     43 H6          2.1828    3.9410   -2.7123 H         1 <0>         0.0906
     44 H7          2.2826    5.7242   -2.9046 H         1 <0>         0.0927
     45 H8          1.5377    2.2433    4.2652 H         1 <0>         0.1327
     46 H9          1.5896   -0.2149    4.2892 H         1 <0>         0.1347
     47 H10         4.2593   -0.2136    0.9600 H         1 <0>         0.1363
     48 H11         4.2166    2.2444    0.9099 H         1 <0>         0.1366
     49 H12         5.6239   -3.6035    2.4826 H         1 <0>         0.0715
     50 H13         6.0152   -1.8807    2.8074 H         1 <0>         0.0671
     51 H14         7.1238   -3.9945    4.2270 H         1 <0>         0.0803
     52 H15         6.9137   -2.3448    4.9058 H         1 <0>         0.0768
     53 H16         5.0675   -4.8037    5.2027 H         1 <0>         0.0771
     54 H17         5.6189   -3.6725    6.4844 H         1 <0>         0.0838
     55 H18         4.1930   -1.8401    5.6381 H         1 <0>         0.0705
     56 H19         3.1312   -3.2570    5.3353 H         1 <0>         0.0842
     57 H20         1.8586    1.2753   -0.1873 H         1 <0>         0.1289
     58 H21        -0.2740    0.0567   -0.0182 H         1 <0>         0.1300
     59 H22        -2.3224    3.7415    0.6525 H         1 <0>         0.1235
     60 H23        -0.1879    4.9566    0.4834 H         1 <0>         0.1182
@<TRIPOS>BOND
     1    1    6 ar
     2    1    2 ar
     3    1   39 1
     4    2    3 ar
     5    2   40 1
     6    3    4 ar
     7    3    7 1
     8    4    5 ar
     9    4   41 1
    10    5    6 ar
    11    6   42 1
    12    7   43 1
    13    7   44 1
    14    7    8 1
    15    8   30 am
    16    8    9 1
    17    9   11 1
    18    9   32 1
    19    9   10 1
    20   11   28 2
    21   11   12 1
    22   12   27 2
    23   12   13 1
    24   13   18 ar
    25   13   14 ar
    26   14   15 ar
    27   14   45 1
    28   15   16 ar
    29   15   46 1
    30   16   17 ar
    31   16   19 1
    32   17   18 ar
    33   17   47 1
    34   18   48 1
    35   19   20 2
    36   19   21 2
    37   19   22 1
    38   22   26 1
    39   22   23 1
    40   23   24 1
    41   23   49 1
    42   23   50 1
    43   24   25 1
    44   24   51 1
    45   24   52 1
    46   25   26 1
    47   25   53 1
    48   25   54 1
    49   26   55 1
    50   26   56 1
    51   28   30 1
    52   28   29 1
    53   30   31 2
    54   32   37 ar
    55   32   33 ar
    56   33   34 ar
    57   33   57 1
    58   34   35 ar
    59   34   58 1
    60   35   36 ar
    61   35   38 1
    62   36   37 ar
    63   36   59 1
    64   37   60 1
@<TRIPOS>MOLECULE
ZINC35565875
   54    57     0     0     0
SMALL
USER_CHARGES

@<TRIPOS>ATOM
      1 C1          0.0318    1.5238    0.0226 C.3       1 <0>        -0.0728
      2 C2          0.0393    0.0169    0.0089 C.2       1 <0>        -0.0129
      3 C3         -1.0479   -0.7752    0.0027 C.2       1 <0>        -0.2099
      4 C4         -0.5821   -2.1100   -0.0098 C.2       1 <0>        -0.1945
      5 C5          0.7619   -2.0539   -0.0106 C.2       1 <0>        -0.0175
      6 O1          1.1326   -0.7630   -0.0051 O.3       1 <0>        -0.1563
      7 C6          1.6934   -3.2384   -0.0215 C.3       1 <0>         0.3060
      8 H1          1.1447   -4.1441   -0.2799 H         1 <0>         0.1083
      9 C7          2.3495   -3.3960    1.3304 C.2       1 <0>        -0.5014
     10 C8          3.6825   -3.2711    1.1342 C.2       1 <0>         0.2852
     11 C9          3.9425   -3.0355   -0.2994 C.2       1 <0>         0.5142
     12 O2          5.0427   -2.8826   -0.7923 O.2       1 <0>        -0.4534
     13 N1          2.7814   -3.0162   -0.9813 N.am      1 <0>        -0.5085
     14 C10         2.6386   -2.8218   -2.3421 C.2       1 <0>         0.3413
     15 N2          3.5844   -2.6241   -3.2430 N.2       1 <0>        -0.5546
     16 C11         3.2987   -2.4535   -4.5084 C.2       1 <0>         0.2190
     17 C12         1.9520   -2.4921   -4.8471 C.2       1 <0>        -0.3391
     18 S1          1.2192   -2.7882   -3.2457 S.3       1 <0>         0.1948
     19 C13         1.3128   -2.3389   -6.1524 C.2       1 <0>         0.5728
     20 O3          1.9918   -2.1454   -7.1432 O.2       1 <0>        -0.5039
     21 O4         -0.0303   -2.4122   -6.2586 O.3       1 <0>        -0.3454
     22 C14        -0.5874   -2.2534   -7.5649 C.3       1 <0>         0.0952
     23 C15        -2.0883   -2.3646   -7.4879 C.2       1 <0>        -0.1557
     24 C16        -2.8424   -1.5058   -8.1281 C.2       1 <0>        -0.1713
     25 C17         4.3719   -2.2269   -5.5418 C.3       1 <0>        -0.0912
     26 O5          4.6278   -3.3489    2.1000 O.3       1 <0>        -0.6232
     27 C18         1.6718   -3.6376    2.6095 C.2       1 <0>         0.5553
     28 O6          1.7079   -2.7933    3.4870 O.2       1 <0>        -0.4477
     29 C19         0.9511   -4.8954    2.8314 C.2       1 <0>        -0.2593
     30 C20         0.1704   -5.2943    3.9101 C.2       1 <0>         0.1201
     31 N3         -0.3570   -6.4902    3.8320 N.2       1 <0>        -0.5240
     32 C21        -0.1573   -7.2665    2.7912 C.2       1 <0>         0.0367
     33 S2          0.8252   -6.3392    1.7877 S.3       1 <0>         0.1625
     34 C22        -0.6879   -8.6563    2.5499 C.3       1 <0>        -0.0631
     35 C23        -0.0559   -4.4009    5.1025 C.3       1 <0>        -0.0855
     36 H2          1.0577    1.8923    0.0198 H         1 <0>         0.0740
     37 H3         -0.4890    1.8926   -0.8610 H         1 <0>         0.0823
     38 H4         -0.4785    1.8765    0.9188 H         1 <0>         0.0842
     39 H5         -2.0787   -0.4532    0.0072 H         1 <0>         0.1466
     40 H6         -1.1890   -3.0034   -0.0170 H         1 <0>         0.1474
     41 H7         -0.3153   -1.2744   -7.9594 H         1 <0>         0.0740
     42 H8         -0.1987   -3.0309   -8.2226 H         1 <0>         0.0791
     43 H9         -2.5422   -3.1523   -6.9049 H         1 <0>         0.1216
     44 H10        -2.3885   -0.7181   -8.7111 H         1 <0>         0.0997
     45 H11        -3.9181   -1.5855   -8.0729 H         1 <0>         0.1082
     46 H12         4.6980   -3.1864   -5.9433 H         1 <0>         0.0852
     47 H13         3.9748   -1.6113   -6.3490 H         1 <0>         0.0942
     48 H14         5.2190   -1.7192   -5.0807 H         1 <0>         0.0805
     49 H15        -1.6472   -8.5948    2.0361 H         1 <0>         0.0878
     50 H16         0.0188   -9.2133    1.9348 H         1 <0>         0.0850
     51 H17        -0.8190   -9.1659    3.5045 H         1 <0>         0.0894
     52 H18        -0.9420   -3.7887    4.9348 H         1 <0>         0.0753
     53 H19        -0.2003   -5.0129    5.9928 H         1 <0>         0.0704
     54 H20         0.8109   -3.7550    5.2422 H         1 <0>         0.0946
@<TRIPOS>BOND
     1    1    2 1
     2    1   36 1
     3    1   37 1
     4    1   38 1
     5    2    6 1
     6    2    3 2
     7    3    4 1
     8    3   39 1
     9    4    5 2
    10    4   40 1
    11    5    6 1
    12    5    7 1
    13    7    8 1
    14    7   13 1
    15    7    9 1
    16    9   10 2
    17    9   27 1
    18   10   11 1
    19   10   26 1
    20   11   12 2
    21   11   13 am
    22   13   14 1
    23   14   18 1
    24   14   15 2
    25   15   16 1
    26   16   17 2
    27   16   25 1
    28   17   18 1
    29   17   19 1
    30   19   20 2
    31   19   21 1
    32   21   22 1
    33   22   23 1
    34   22   41 1
    35   22   42 1
    36   23   24 2
    37   23   43 1
    38   24   44 1
    39   24   45 1
    40   25   46 1
    41   25   47 1
    42   25   48 1
    43   27   28 2
    44   27   29 1
    45   29   33 1
    46   29   30 2
    47   30   31 1
    48   30   35 1
    49   31   32 2
    50   32   33 1
    51   32   34 1
    52   34   49 1
    53   34   50 1
    54   34   51 1
    55   35   52 1
    56   35   53 1
    57   35   54 1
@<TRIPOS>MOLECULE
ZINC38620608
   53    55     0     0     0
SMALL
USER_CHARGES

@<TRIPOS>ATOM
      1 C1          0.9514   -2.8001    5.3808 C.3       1 <0>        -0.1296
      2 C2          0.0250   -2.4925    4.2326 C.2       1 <0>         0.1635
      3 C3         -0.4045   -3.5031    3.3805 C.2       1 <0>        -0.3105
      4 C4         -1.3041   -3.1618    2.2771 C.2       1 <0>         0.5736
      5 O1         -1.6945   -4.0302    1.5173 O.2       1 <0>        -0.5633
      6 N1         -1.6996   -1.8867    2.1039 N.am      1 <0>        -0.5239
      7 C5         -1.2802   -0.9039    2.9349 C.2       1 <0>         0.5310
      8 C6         -0.4248   -1.1777    4.0080 C.2       1 <0>        -0.4095
      9 C7          0.0065   -0.0963    4.8933 C.2       1 <0>         0.4407
     10 O2          0.6422   -0.3497    5.8957 O.2       1 <0>        -0.5105
     11 C8         -0.3384    1.3325    4.5610 C.3       1 <0>        -0.1559
     12 C9          0.1005    2.2435    5.7092 C.3       1 <0>         0.0867
     13 N2         -0.2348    3.6325    5.3861 N.am      1 <0>        -0.5130
     14 C10         0.6469    4.3764    4.7396 C.2       1 <0>         0.5444
     15 O3          1.7315    3.9372    4.4053 O.2       1 <0>        -0.4507
     16 C11         0.2479    5.7679    4.4434 C.2       1 <0>        -0.2250
     17 C12         0.9351    6.7472    3.8035 C.2       1 <0>         0.0704
     18 C13         0.3876    8.1093    3.7423 C.ar      1 <0>        -0.1010
     19 C14        -0.7696    8.4347    4.4594 C.ar      1 <0>        -0.0579
     20 C15        -1.2773    9.7141    4.3978 C.ar      1 <0>        -0.1483
     21 C16        -0.6449   10.6782    3.6272 C.ar      1 <0>         0.1231
     22 C17         0.5018   10.3626    2.9137 C.ar      1 <0>        -0.1561
     23 C18         1.0240    9.0889    2.9711 C.ar      1 <0>        -0.0487
     24 F1         -1.1483   11.9306    3.5709 F         1 <0>        -0.1324
     25 S1         -1.3893    5.8064    5.1602 S.3       1 <0>         0.0536
     26 C19        -1.4377    4.1217    5.7498 C.2       1 <0>         0.2651
     27 S2         -2.7040    3.3216    6.5788 S.2       1 <0>        -0.3218
     28 O4         -1.6980    0.3588    2.7285 O.3       1 <0>        -0.6172
     29 C20        -2.5996   -1.5568    0.9961 C.3       1 <0>         0.1080
     30 C21        -4.0511   -1.6790    1.4644 C.3       1 <0>         0.0495
     31 O5         -4.3118   -0.6964    2.4687 O.3       1 <0>        -0.3606
     32 C22        -5.6472   -0.7247    2.9767 C.3       1 <0>         0.0322
     33 C23         0.0258   -4.8546    3.5781 C.1       1 <0>         0.3153
     34 N3          0.3672   -5.9267    3.7349 N.1       1 <0>        -0.4927
     35 H1          0.3659   -2.9724    6.2839 H         1 <0>         0.0819
     36 H2          1.5332   -3.6923    5.1492 H         1 <0>         0.0532
     37 H3          1.6251   -1.9581    5.5396 H         1 <0>         0.1006
     38 H4          0.1762    1.6272    3.6464 H         1 <0>         0.0928
     39 H5         -1.4151    1.4224    4.4171 H         1 <0>         0.1271
     40 H6         -0.4141    1.9488    6.6238 H         1 <0>         0.1132
     41 H7          1.1772    2.1537    5.8530 H         1 <0>         0.1044
     42 H8          1.8847    6.5255    3.3391 H         1 <0>         0.1661
     43 H9         -1.2635    7.6847    5.0593 H         1 <0>         0.1389
     44 H10        -2.1701    9.9666    4.9506 H         1 <0>         0.1463
     45 H11         0.9888   11.1181    2.3150 H         1 <0>         0.1447
     46 H12         1.9197    8.8457    2.4189 H         1 <0>         0.1465
     47 H13        -2.4094   -0.5359    0.6651 H         1 <0>         0.1015
     48 H14        -2.4255   -2.2453    0.1692 H         1 <0>         0.0991
     49 H15        -4.7203   -1.5206    0.6187 H         1 <0>         0.0549
     50 H16        -4.2170   -2.6739    1.8777 H         1 <0>         0.0498
     51 H17        -5.7644    0.0506    3.7338 H         1 <0>         0.0831
     52 H18        -6.3495   -0.5465    2.1624 H         1 <0>         0.0333
     53 H19        -5.8462   -1.6998    3.4213 H         1 <0>         0.0340
@<TRIPOS>BOND
     1    1    2 1
     2    1   35 1
     3    1   36 1
     4    1   37 1
     5    2    8 1
     6    2    3 2
     7    3    4 1
     8    3   33 1
     9    4    5 2
    10    4    6 am
    11    6    7 1
    12    6   29 1
    13    7    8 2
    14    7   28 1
    15    8    9 1
    16    9   10 2
    17    9   11 1
    18   11   12 1
    19   11   38 1
    20   11   39 1
    21   12   13 1
    22   12   40 1
    23   12   41 1
    24   13   26 1
    25   13   14 am
    26   14   15 2
    27   14   16 1
    28   16   17 2
    29   16   25 1
    30   17   18 1
    31   17   42 1
    32   18   23 ar
    33   18   19 ar
    34   19   20 ar
    35   19   43 1
    36   20   21 ar
    37   20   44 1
    38   21   22 ar
    39   21   24 1
    40   22   23 ar
    41   22   45 1
    42   23   46 1
    43   25   26 1
    44   26   27 2
    45   29   30 1
    46   29   47 1
    47   29   48 1
    48   30   31 1
    49   30   49 1
    50   30   50 1
    51   31   32 1
    52   32   51 1
    53   32   52 1
    54   32   53 1
    55   33   34 3
@<TRIPOS>MOLECULE
ZINC40000565
   55    59     0     0     0
SMALL
USER_CHARGES

@<TRIPOS>ATOM
      1 C1          0.5164   -1.8748    4.6063 C.3       1 <0>        -0.0754
      2 C2          0.3846   -2.3729    3.1902 C.2       1 <0>        -0.0009
      3 C3         -0.7677   -2.7617    2.5984 C.2       1 <0>        -0.2246
      4 C4         -0.4505   -3.1496    1.2886 C.2       1 <0>        -0.1467
      5 C5          0.9088   -2.9737    1.1454 C.2       1 <0>        -0.0692
      6 O1          1.3887   -2.4967    2.3127 O.3       1 <0>        -0.1422
      7 C6          1.6929   -3.2503   -0.0620 C.2       1 <0>         0.5471
      8 O2          1.1598   -3.7626   -1.0307 O.2       1 <0>        -0.4454
      9 C7          3.1192   -2.9105   -0.1041 C.2       1 <0>        -0.4843
     10 C8          4.1540   -3.7786   -0.1939 C.2       1 <0>         0.2765
     11 C9          5.4214   -3.0238   -0.2082 C.2       1 <0>         0.5137
     12 O3          6.5282   -3.5210   -0.2819 O.2       1 <0>        -0.4815
     13 N1          5.1721   -1.7041   -0.1280 N.am      1 <0>        -0.4988
     14 C10         3.7170   -1.5234   -0.0623 C.3       1 <0>         0.2753
     15 H1          3.4447   -1.0257    0.8684 H         1 <0>         0.0940
     16 C11         3.2382   -0.7168   -1.2417 C.ar      1 <0>        -0.1233
     17 C12         2.3037    0.2931   -1.0688 C.ar      1 <0>        -0.0566
     18 C13         1.8922    1.0090   -2.1823 C.ar      1 <0>        -0.1723
     19 C14         2.4233    0.6947   -3.4192 C.ar      1 <0>         0.0904
     20 N2          3.3101   -0.2728   -3.5463 N.ar      1 <0>        -0.4834
     21 C15         3.7290   -0.9703   -2.5083 C.ar      1 <0>         0.1254
     22 C16         6.1237   -0.6911   -0.1148 C.2       1 <0>         0.3228
     23 N3          5.9685    0.6208   -0.0328 N.2       1 <0>        -0.3129
     24 N4          6.9512    1.4114   -0.0337 N.2       1 <0>        -0.2496
     25 C17         8.2005    0.9760   -0.1170 C.2       1 <0>        -0.0297
     26 S1          7.9097   -0.7890   -0.1960 S.3       1 <0>         0.0906
     27 S2          9.7149    1.8765   -0.1365 S.3       1 <0>         0.0410
     28 C18         9.1961    3.6104   -0.0127 C.3       1 <0>        -0.0814
     29 C19        10.4123    4.5003   -0.0188 C.2       1 <0>        -0.1362
     30 C20        10.6128    5.3418   -1.0233 C.2       1 <0>        -0.0886
     31 C21        11.8057    6.2146   -1.0294 C.ar      1 <0>        -0.0585
     32 C22        12.7256    6.1512    0.0179 C.ar      1 <0>        -0.1117
     33 C23        13.8370    6.9687    0.0064 C.ar      1 <0>        -0.1192
     34 C24        14.0401    7.8501   -1.0404 C.ar      1 <0>        -0.1192
     35 C25        13.1317    7.9182   -2.0815 C.ar      1 <0>        -0.1205
     36 C26        12.0197    7.1014   -2.0852 C.ar      1 <0>        -0.1054
     37 O4          4.0433   -5.1264   -0.2595 O.3       1 <0>        -0.6286
     38 H2          1.5588   -1.6294    4.8097 H         1 <0>         0.0770
     39 H3         -0.0986   -0.9844    4.7370 H         1 <0>         0.0850
     40 H4          0.1843   -2.6502    5.2966 H         1 <0>         0.0852
     41 H5         -1.7487   -2.7715    3.0501 H         1 <0>         0.1494
     42 H6         -1.1370   -3.5147    0.5390 H         1 <0>         0.1546
     43 H7          1.9057    0.5163   -0.0899 H         1 <0>         0.1322
     44 H8          1.1657    1.8021   -2.0847 H         1 <0>         0.1322
     45 H9          2.1080    1.2477   -4.2916 H         1 <0>         0.1511
     46 H10         4.4606   -1.7519   -2.6507 H         1 <0>         0.1423
     47 H11         8.5587    3.8604   -0.8608 H         1 <0>         0.1008
     48 H12         8.6422    3.7585    0.9143 H         1 <0>         0.1078
     49 H13        11.1205    4.4524    0.7951 H         1 <0>         0.1266
     50 H14         9.9046    5.3896   -1.8373 H         1 <0>         0.1251
     51 H15        12.5677    5.4640    0.8360 H         1 <0>         0.1262
     52 H16        14.5497    6.9206    0.8163 H         1 <0>         0.1235
     53 H17        14.9115    8.4882   -1.0446 H         1 <0>         0.1215
     54 H18        13.2956    8.6090   -2.8954 H         1 <0>         0.1234
     55 H19        11.3139    7.1518   -2.9011 H         1 <0>         0.1255
@<TRIPOS>BOND
     1    1    2 1
     2    1   38 1
     3    1   39 1
     4    1   40 1
     5    2    6 1
     6    2    3 2
     7    3    4 1
     8    3   41 1
     9    4    5 2
    10    4   42 1
    11    5    6 1
    12    5    7 1
    13    7    8 2
    14    7    9 1
    15    9   14 1
    16    9   10 2
    17   10   11 1
    18   10   37 1
    19   11   12 2
    20   11   13 am
    21   13   14 1
    22   13   22 1
    23   14   15 1
    24   14   16 1
    25   16   21 ar
    26   16   17 ar
    27   17   18 ar
    28   17   43 1
    29   18   19 ar
    30   18   44 1
    31   19   20 ar
    32   19   45 1
    33   20   21 ar
    34   21   46 1
    35   22   26 1
    36   22   23 2
    37   23   24 1
    38   24   25 2
    39   25   26 1
    40   25   27 1
    41   27   28 1
    42   28   29 1
    43   28   47 1
    44   28   48 1
    45   29   30 2
    46   29   49 1
    47   30   31 1
    48   30   50 1
    49   31   36 ar
    50   31   32 ar
    51   32   33 ar
    52   32   51 1
    53   33   34 ar
    54   33   52 1
    55   34   35 ar
    56   34   53 1
    57   35   36 ar
    58   35   54 1
    59   36   55 1
@<TRIPOS>MOLECULE
ZINC02788723
   50    53     0     0     0
SMALL
USER_CHARGES
8-[2-(4-chloro-5-methyl-pyrazol-1-yl)propanoylamino]-4-[(5-methyl-1,3,4-thiadiazol-2-yl)sulfanylmethyl]-7-oxo-2-thia-6-azabicyclo[4.2.0]oct-4-ene-5-carboxylic acid
@<TRIPOS>ATOM
      1 C1          0.0020    0.9991    0.1988 C.3       1 <0>        -0.0975
      2 C2         -0.7656    1.6259    1.3341 C.2       1 <0>         0.1006
      3 C3         -0.2549    2.0076    2.5283 C.2       1 <0>        -0.1847
      4 C4         -1.2990    2.5411    3.2920 C.2       1 <0>         0.0631
      5 N1         -2.3967    2.4819    2.5822 N.2       1 <0>        -0.2483
      6 N2         -2.0852    1.9131    1.3405 N.pl3     1 <0>        -0.3495
      7 C5         -3.0253    1.6704    0.2434 C.3       1 <0>         0.1501
      8 H1         -2.4965    1.2161   -0.5945 H         1 <0>         0.1326
      9 C6         -3.6426    2.9975   -0.2022 C.3       1 <0>        -0.1617
     10 C7         -4.1155    0.7417    0.7124 C.2       1 <0>         0.5097
     11 O1         -4.1079    0.3236    1.8509 O.2       1 <0>        -0.4924
     12 N3         -5.0990    0.3756   -0.1334 N.am      1 <0>        -0.7111
     13 C8         -6.1588   -0.5273    0.3225 C.3       1 <0>         0.1290
     14 H2         -5.8412   -1.1624    1.1494 H         1 <0>         0.1582
     15 C9         -6.8190   -1.2986   -0.8085 C.3       1 <0>         0.1326
     16 H3         -6.5708   -0.9731   -1.8188 H         1 <0>         0.1441
     17 N4         -8.0717   -0.7355   -0.2040 N.am      1 <0>        -0.5646
     18 C10        -7.4737    0.1751    0.5788 C.2       1 <0>         0.5411
     19 O2         -7.8323    1.1426    1.2163 O.2       1 <0>        -0.4375
     20 C11        -9.3793   -1.2136   -0.4187 C.2       1 <0>         0.1754
     21 C12        -9.5824   -2.4372   -0.8778 C.2       1 <0>        -0.2113
     22 C13        -8.5693   -3.4589   -1.2808 C.3       1 <0>        -0.0183
     23 S1         -6.9301   -3.1006   -0.5767 S.3       1 <0>        -0.2094
     24 C14       -11.0239   -2.8558   -1.0115 C.3       1 <0>        -0.0571
     25 S2        -11.5253   -2.7468   -2.7473 S.3       1 <0>         0.0636
     26 C15       -13.2006   -3.2765   -2.6157 C.2       1 <0>         0.0502
     27 N5        -13.8973   -3.6489   -1.5493 N.2       1 <0>        -0.2862
     28 N6        -15.1046   -4.0035   -1.6351 N.2       1 <0>        -0.2677
     29 C16       -15.7497   -4.0273   -2.7837 C.2       1 <0>         0.0570
     30 S3        -14.4540   -3.4595   -3.8813 S.3       1 <0>        -0.0178
     31 C17       -17.1740   -4.4154   -3.0863 C.3       1 <0>        -0.0544
     32 C18       -10.5321   -0.3417   -0.1293 C.2       1 <0>         0.4962
     33 O3        -10.9468    0.4197   -0.9807 O.co2     1 <0>        -0.5989
     34 Cl1         1.4021    1.8607    3.0246 Cl        1 <0>        -0.0447
     35 H4         -0.0100   -0.0855    0.3073 H         1 <0>         0.0870
     36 H5          1.0322    1.3546    0.2167 H         1 <0>         0.0915
     37 H6         -0.4611    1.2746   -0.7487 H         1 <0>         0.0749
     38 H7         -1.2136    2.9345    4.2942 H         1 <0>         0.1913
     39 H8         -2.8541    3.6693   -0.5414 H         1 <0>         0.0785
     40 H9         -4.3421    2.8170   -1.0184 H         1 <0>         0.0854
     41 H10        -4.1714    3.4518    0.6357 H         1 <0>         0.0832
     42 H11        -5.1051    0.7099   -1.0439 H         1 <0>         0.4083
     43 H12        -8.8973   -4.4395   -0.9357 H         1 <0>         0.1224
     44 H13        -8.4932   -3.4739   -2.3680 H         1 <0>         0.0977
     45 H14       -11.1377   -3.8827   -0.6643 H         1 <0>         0.1048
     46 H15       -11.6507   -2.1973   -0.4102 H         1 <0>         0.1262
     47 H16       -17.8136   -3.5358   -3.0135 H         1 <0>         0.0932
     48 H17       -17.2326   -4.8248   -4.0948 H         1 <0>         0.0875
     49 H18       -17.5061   -5.1665   -2.3695 H         1 <0>         0.0979
     50 O4        -11.1261   -0.3890    1.0795 O.co2     1 <0>        -0.7200
@<TRIPOS>BOND
     1    1    2 1
     2    1   35 1
     3    1   36 1
     4    1   37 1
     5    2    6 1
     6    2    3 2
     7    3    4 1
     8    3   34 1
     9    4    5 2
    10    4   38 1
    11    5    6 1
    12    6    7 1
    13    7    8 1
    14    7    9 1
    15    7   10 1
    16    9   39 1
    17    9   40 1
    18    9   41 1
    19   10   11 2
    20   10   12 am
    21   12   13 1
    22   12   42 1
    23   13   14 1
    24   13   18 1
    25   13   15 1
    26   15   16 1
    27   15   23 1
    28   15   17 1
    29   17   18 am
    30   17   20 1
    31   18   19 2
    32   20   21 2
    33   20   32 1
    34   21   22 1
    35   21   24 1
    36   22   23 1
    37   22   43 1
    38   22   44 1
    39   24   25 1
    40   24   45 1
    41   24   46 1
    42   25   26 1
    43   26   30 1
    44   26   27 2
    45   27   28 1
    46   28   29 2
    47   29   30 1
    48   29   31 1
    49   31   47 1
    50   31   48 1
    51   31   49 1
    52   32   33 2
    53   32   50 1
@<TRIPOS>MOLECULE
ZINC09329786
   58    61     0     0     0
SMALL
USER_CHARGES
ethyl 4-[(2S)-4-hydroxy-3-(4-methoxybenzoyl)-2-(3-nitrophenyl)-5-oxo-2H-pyrrol-1-yl]benzoate
@<TRIPOS>ATOM
      1 C1         -7.1857   11.3851    0.6648 C.3       1 <0>        -0.1547
      2 C2         -5.7850   11.9988    0.6187 C.3       1 <0>         0.0610
      3 O1         -4.7926   10.9391    0.5993 O.3       1 <0>        -0.3558
      4 C3         -3.4987   11.3133    0.5584 C.2       1 <0>         0.5159
      5 O2         -3.2077   12.4928    0.5395 O.2       1 <0>        -0.5148
      6 C4         -2.4360   10.2912    0.5366 C.ar      1 <0>        -0.1733
      7 C5         -1.0930   10.6778    0.4941 C.ar      1 <0>        -0.0172
      8 C6         -0.1035    9.7212    0.4734 C.ar      1 <0>        -0.1770
      9 C7         -0.4387    8.3704    0.4942 C.ar      1 <0>         0.2320
     10 C8         -1.7748    7.9821    0.5311 C.ar      1 <0>        -0.1818
     11 C9         -2.7691    8.9335    0.5578 C.ar      1 <0>        -0.0263
     12 N1          0.5649    7.4053    0.4722 N.am      1 <0>        -0.5522
     13 C10         0.3652    5.9513    0.4827 C.3       1 <0>         0.2605
     14 H1         -0.2031    5.6574    1.3775 H         1 <0>         0.0874
     15 C11         1.7452    5.3367    0.4536 C.2       1 <0>        -0.4967
     16 C12         2.6285    6.3620    0.4197 C.2       1 <0>         0.2699
     17 C13         1.8889    7.6406    0.4315 C.2       1 <0>         0.5113
     18 O3          2.4008    8.7424    0.4084 O.2       1 <0>        -0.4942
     19 O4          3.9751    6.2356    0.3808 O.3       1 <0>        -0.6333
     20 C14         2.0655    3.9060    0.4552 C.2       1 <0>         0.5081
     21 O5          2.5852    3.3977   -0.5208 O.2       1 <0>        -0.4709
     22 C15         1.7578    3.0821    1.6407 C.ar      1 <0>        -0.1801
     23 C16         1.9938    1.7042    1.6173 C.ar      1 <0>        -0.0324
     24 C17         1.7050    0.9394    2.7249 C.ar      1 <0>        -0.1658
     25 C18         1.1743    1.5346    3.8640 C.ar      1 <0>         0.1432
     26 C19         0.9430    2.9054    3.8933 C.ar      1 <0>        -0.2230
     27 C20         1.2290    3.6775    2.7901 C.ar      1 <0>        -0.0252
     28 O6          0.8861    0.7764    4.9518 O.3       1 <0>        -0.3173
     29 C21         0.2365    1.4295    6.0442 C.3       1 <0>         0.0231
     30 C22        -0.4182    5.5238   -0.7316 C.ar      1 <0>        -0.0775
     31 C23        -0.1293    6.0703   -1.9683 C.ar      1 <0>        -0.0370
     32 C24        -0.8452    5.6753   -3.0827 C.ar      1 <0>        -0.1132
     33 C25        -1.8557    4.7398   -2.9593 C.ar      1 <0>        -0.0593
     34 C26        -2.1479    4.1973   -1.7222 C.ar      1 <0>        -0.0431
     35 C27        -1.4293    4.5896   -0.6081 C.ar      1 <0>        -0.0511
     36 N2         -3.2301    3.1961   -1.5900 N.pl3     1 <0>         0.0334
     37 O7         -3.4375    2.6617   -0.5153 O.2       1 <0>        -0.1621
     38 O8         -3.9131    2.9065   -2.5560 O.3       1 <0>        -0.1689
     39 H2         -7.9375   12.1880    0.6795 H         1 <0>         0.0797
     40 H3         -7.2873   10.7710    1.5718 H         1 <0>         0.0676
     41 H4         -7.3394   10.7551   -0.2237 H         1 <0>         0.0675
     42 H5         -5.6834   12.6129   -0.2883 H         1 <0>         0.0701
     43 H6         -5.6313   12.6288    1.5072 H         1 <0>         0.0702
     44 H7         -0.8323   11.7257    0.4773 H         1 <0>         0.1396
     45 H8          0.9340   10.0191    0.4406 H         1 <0>         0.1634
     46 H9         -2.0316    6.9332    0.5426 H         1 <0>         0.1310
     47 H10        -3.8055    8.6316    0.5906 H         1 <0>         0.1382
     48 H11         2.4018    1.2404    0.7314 H         1 <0>         0.1366
     49 H12         1.8866   -0.1250    2.7075 H         1 <0>         0.1314
     50 H13         0.5342    3.3644    4.7814 H         1 <0>         0.1295
     51 H14         1.0449    4.7414    2.8121 H         1 <0>         0.1349
     52 H15         0.0629    0.7051    6.8536 H         1 <0>         0.0992
     53 H16        -0.7267    1.8394    5.7060 H         1 <0>         0.0580
     54 H17         0.8733    2.2467    6.4139 H         1 <0>         0.0569
     55 H18         0.6578    6.8036   -2.0641 H         1 <0>         0.1360
     56 H19        -0.6171    6.0995   -4.0494 H         1 <0>         0.1462
     57 H20        -2.4168    4.4331   -3.8297 H         1 <0>         0.1504
     58 H21        -1.6576    4.1657    0.3586 H         1 <0>         0.1523
@<TRIPOS>BOND
     1    1    2 1
     2    1   39 1
     3    1   40 1
     4    1   41 1
     5    2    3 1
     6    2   42 1
     7    2   43 1
     8    3    4 1
     9    4    5 2
    10    4    6 1
    11    6   11 ar
    12    6    7 ar
    13    7    8 ar
    14    7   44 1
    15    8    9 ar
    16    8   45 1
    17    9   10 ar
    18    9   12 1
    19   10   11 ar
    20   10   46 1
    21   11   47 1
    22   12   17 am
    23   12   13 1
    24   13   14 1
    25   13   15 1
    26   13   30 1
    27   15   16 2
    28   15   20 1
    29   16   17 1
    30   16   19 1
    31   17   18 2
    32   20   21 2
    33   20   22 1
    34   22   27 ar
    35   22   23 ar
    36   23   24 ar
    37   23   48 1
    38   24   25 ar
    39   24   49 1
    40   25   26 ar
    41   25   28 1
    42   26   27 ar
    43   26   50 1
    44   27   51 1
    45   28   29 1
    46   29   52 1
    47   29   53 1
    48   29   54 1
    49   30   35 ar
    50   30   31 ar
    51   31   32 ar
    52   31   55 1
    53   32   33 ar
    54   32   56 1
    55   33   34 ar
    56   33   57 1
    57   34   35 ar
    58   34   36 1
    59   35   58 1
    60   36   37 2
    61   36   38 1
@<TRIPOS>MOLECULE
ZINC33812353
   57    59     0     0     0
SMALL
USER_CHARGES
2-[(5Z)-5-[[5-cyano-2-[(3S)-3-ethoxycarbonyl-1-piperidyl]-1,4-dimethyl-6-oxo-3-pyridyl]methylene]-4-oxo-2-thioxo-thiazolidin-3-yl]acetic acid
@<TRIPOS>ATOM
      1 C1         -0.8154   -5.9943   -3.9866 C.3       1 <0>        -0.1536
      2 C2         -0.6316   -4.4844   -3.8218 C.3       1 <0>         0.0585
      3 O1         -1.4488   -4.0150   -2.7172 O.3       1 <0>        -0.3554
      4 C3         -1.4014   -2.7028   -2.4386 C.2       1 <0>         0.4619
      5 O2         -0.7003   -1.9706   -3.0961 O.2       1 <0>        -0.4936
      6 C4         -2.2226   -2.1428   -1.3059 C.3       1 <0>        -0.0723
      7 H1         -3.2843   -2.3453   -1.5105 H         1 <0>         0.1229
      8 C5         -1.8050   -2.8106    0.0071 C.3       1 <0>        -0.1204
      9 C6         -2.6013   -2.1936    1.1603 C.3       1 <0>        -0.1113
     10 C7         -2.3561   -0.6834    1.1924 C.3       1 <0>         0.0442
     11 N1         -2.7721   -0.0913   -0.0853 N.pl3     1 <0>        -0.5164
     12 C8         -1.9883   -0.6340   -1.2023 C.3       1 <0>         0.0582
     13 C9         -2.6872    1.2697   -0.0443 C.2       1 <0>         0.4248
     14 C10        -1.4314    1.8858    0.0850 C.2       1 <0>        -0.2325
     15 C11        -1.3514    3.2878    0.1325 C.2       1 <0>         0.1225
     16 C12        -2.5239    4.0323    0.0397 C.2       1 <0>        -0.1766
     17 C13        -3.7668    3.3616   -0.0897 C.2       1 <0>         0.5493
     18 O3         -4.7970    4.0076   -0.1672 O.2       1 <0>        -0.5232
     19 N2         -3.8172    2.0179   -0.1282 N.am      1 <0>        -0.4714
     20 C14        -5.1142    1.3500   -0.2625 C.3       1 <0>         0.0566
     21 C15        -2.4761    5.4629    0.0796 C.1       1 <0>         0.2828
     22 N3         -2.4381    6.5979    0.1113 N.1       1 <0>        -0.4145
     23 C16        -0.0176    3.9744    0.2765 C.3       1 <0>        -0.1531
     24 C17        -0.2167    1.0736    0.1755 C.2       1 <0>         0.0636
     25 C18         0.6996    1.1055   -0.8301 C.2       1 <0>        -0.1967
     26 C19         1.9956    0.5092   -0.8977 C.2       1 <0>         0.5462
     27 O4          2.4348   -0.1437    0.0319 O.2       1 <0>        -0.4561
     28 N4          2.7023    0.6840   -2.0008 N.am      1 <0>        -0.4890
     29 C20         2.2174    1.4146   -3.0292 C.2       1 <0>         0.3038
     30 S1          2.9548    1.7729   -4.5321 S.2       1 <0>        -0.3296
     31 S2          0.6121    1.9117   -2.4232 S.3       1 <0>         0.0387
     32 C21         4.0337    0.0822   -2.1078 C.3       1 <0>         0.0351
     33 C22         5.0651    1.0478   -1.5836 C.2       1 <0>         0.4678
     34 O5          4.7231    2.1279   -1.1638 O.co2     1 <0>        -0.6245
     35 O6          6.3636    0.7080   -1.5832 O.co2     1 <0>        -0.7453
     36 H2         -0.1963   -6.3498   -4.8234 H         1 <0>         0.0818
     37 H3         -1.8731   -6.2145   -4.1936 H         1 <0>         0.0665
     38 H4         -0.5090   -6.5041   -3.0613 H         1 <0>         0.0675
     39 H5          0.4261   -4.2642   -3.6148 H         1 <0>         0.0733
     40 H6         -0.9380   -3.9746   -4.7471 H         1 <0>         0.0725
     41 H7         -2.0113   -3.8897   -0.0486 H         1 <0>         0.0886
     42 H8         -0.7295   -2.6510    0.1738 H         1 <0>         0.0739
     43 H9         -3.6734   -2.3897    1.0117 H         1 <0>         0.0823
     44 H10        -2.2752   -2.6401    2.1112 H         1 <0>         0.0881
     45 H11        -2.9384   -0.2347    2.0107 H         1 <0>         0.0941
     46 H12        -1.2856   -0.4891    1.3547 H         1 <0>         0.0652
     47 H13        -0.9196   -0.4400   -1.0282 H         1 <0>         0.0783
     48 H14        -2.3011   -0.1492   -2.1388 H         1 <0>         0.0997
     49 H15        -5.9119    2.1055   -0.3161 H         1 <0>         0.1056
     50 H16        -5.2834    0.6992    0.6081 H         1 <0>         0.0887
     51 H17        -5.1211    0.7438   -1.1803 H         1 <0>         0.0890
     52 H18        -0.1662    5.0642    0.2938 H         1 <0>         0.0824
     53 H19         0.6268    3.7056   -0.5735 H         1 <0>         0.1023
     54 H20         0.4601    3.6545    1.2143 H         1 <0>         0.1002
     55 H21        -0.0447    0.4376    1.0563 H         1 <0>         0.1720
     56 H22         4.0656   -0.8449   -1.5167 H         1 <0>         0.1087
     57 H23         4.2487   -0.1474   -3.1619 H         1 <0>         0.1177
@<TRIPOS>BOND
     1    1    2 1
     2    1   36 1
     3    1   37 1
     4    1   38 1
     5    2    3 1
     6    2   39 1
     7    2   40 1
     8    3    4 1
     9    4    5 2
    10    4    6 1
    11    6    7 1
    12    6   12 1
    13    6    8 1
    14    8    9 1
    15    8   41 1
    16    8   42 1
    17    9   10 1
    18    9   43 1
    19    9   44 1
    20   10   11 1
    21   10   45 1
    22   10   46 1
    23   11   12 1
    24   11   13 1
    25   12   47 1
    26   12   48 1
    27   13   19 1
    28   13   14 2
    29   14   15 1
    30   14   24 1
    31   15   16 2
    32   15   23 1
    33   16   17 1
    34   16   21 1
    35   17   18 2
    36   17   19 am
    37   19   20 1
    38   20   49 1
    39   20   50 1
    40   20   51 1
    41   21   22 3
    42   23   52 1
    43   23   53 1
    44   23   54 1
    45   24   25 2
    46   24   55 1
    47   25   31 1
    48   25   26 1
    49   26   27 2
    50   26   28 am
    51   28   29 1
    52   28   32 1
    53   29   30 2
    54   29   31 1
    55   32   33 1
    56   32   56 1
    57   32   57 1
    58   33   34 2
    59   33   35 1
@<TRIPOS>MOLECULE
ZINC39692955
   55    59     0     0     0
SMALL
USER_CHARGES

@<TRIPOS>ATOM
      1 C1          0.0662    1.5010    0.1581 C.3       1 <0>        -0.1193
      2 C2          0.0680   -0.0055    0.1173 C.ar      1 <0>        -0.0667
      3 C3         -0.1684   -0.6637   -1.0755 C.ar      1 <0>        -0.1047
      4 C4         -0.1669   -2.0444   -1.1161 C.ar      1 <0>        -0.0952
      5 C5          0.0722   -2.7711    0.0422 C.ar      1 <0>         0.1002
      6 C6          0.3093   -2.1076    1.2381 C.ar      1 <0>        -0.0978
      7 C7          0.3117   -0.7267    1.2715 C.ar      1 <0>        -0.1088
      8 N1          0.0739   -4.1732    0.0042 N.pl3     1 <0>        -0.4613
      9 C8         -0.8877   -4.9940    0.5280 C.2       1 <0>         0.4959
     10 N2         -0.5331   -6.2335    0.2941 N.2       1 <0>        -0.3647
     11 N3          0.6854   -6.2140   -0.3966 N.2       1 <0>        -0.3049
     12 C9          1.0349   -4.9623   -0.5687 C.2       1 <0>         0.1899
     13 S1          2.4877   -4.3955   -1.3889 S.3       1 <0>         0.0955
     14 C10         3.3219   -5.9204   -1.9080 C.3       1 <0>        -0.0597
     15 C11         4.5973   -5.5738   -2.6320 C.2       1 <0>         0.4627
     16 N4          4.9080   -4.3074   -2.7714 N.2       1 <0>        -0.6203
     17 C12         6.0165   -3.8986   -3.3974 C.2       1 <0>         0.5659
     18 O1          6.2752   -2.7122   -3.5089 O.2       1 <0>        -0.4706
     19 C13         6.9305   -4.9451   -3.9566 C.2       1 <0>        -0.3450
     20 C14         8.0859   -4.7736   -4.6161 C.2       1 <0>         0.1270
     21 C15         8.8224   -6.0104   -5.0782 C.3       1 <0>        -0.1474
     22 H1          9.8039   -6.0783   -4.6089 H         1 <0>         0.1593
     23 S2          7.7130   -7.3498   -4.4813 S.3       1 <0>         0.0467
     24 C16         6.4669   -6.3311   -3.7328 C.2       1 <0>         0.2905
     25 N5          5.3478   -6.5638   -3.0891 N.2       1 <0>        -0.5571
     26 C17         8.9426   -6.0373   -6.5801 C.2       1 <0>         0.5289
     27 O2         10.0055   -6.3284   -7.1015 O.co2     1 <0>        -0.6488
     28 O3          7.9768   -5.7679   -7.2739 O.co2     1 <0>        -0.6479
     29 C18         8.6309   -3.3951   -4.8876 C.3       1 <0>        -0.1513
     30 N6         -2.0374   -4.5849    1.1915 N.pl3     1 <0>        -0.5964
     31 C19        -2.4032   -3.1616    1.2658 C.3       1 <0>         0.0724
     32 C20        -3.8636   -3.0140    0.8239 C.3       1 <0>         0.0497
     33 O4         -4.6765   -3.9185    1.5754 O.3       1 <0>        -0.3784
     34 C21        -4.3608   -5.2976    1.3704 C.3       1 <0>         0.0462
     35 C22        -2.9288   -5.5627    1.8354 C.3       1 <0>         0.1059
     36 H2          1.0721    1.8710   -0.0403 H         1 <0>         0.0778
     37 H3         -0.6178    1.8841   -0.5992 H         1 <0>         0.0706
     38 H4         -0.2570    1.8374    1.1432 H         1 <0>         0.0697
     39 H5         -0.3548   -0.0978   -1.9763 H         1 <0>         0.1360
     40 H6         -0.3520   -2.5580   -2.0479 H         1 <0>         0.1331
     41 H7          0.4957   -2.6704    2.1408 H         1 <0>         0.1285
     42 H8          0.5005   -0.2099    2.2009 H         1 <0>         0.1342
     43 H9          3.5546   -6.5239   -1.0307 H         1 <0>         0.1325
     44 H10         2.6679   -6.4838   -2.5735 H         1 <0>         0.1328
     45 H11         7.9529   -2.6484   -4.4742 H         1 <0>         0.1112
     46 H12         9.6110   -3.2936   -4.4215 H         1 <0>         0.0917
     47 H13         8.7231   -3.2462   -5.9634 H         1 <0>         0.1020
     48 H14        -2.2921   -2.8070    2.2906 H         1 <0>         0.0762
     49 H15        -1.7592   -2.5819    0.6045 H         1 <0>         0.1032
     50 H16        -4.1964   -1.9914    1.0022 H         1 <0>         0.1071
     51 H17        -3.9478   -3.2451   -0.2380 H         1 <0>         0.0558
     52 H18        -5.0513   -5.9181    1.9417 H         1 <0>         0.1102
     53 H19        -4.4468   -5.5371    0.3105 H         1 <0>         0.0577
     54 H20        -2.6327   -6.5724    1.5511 H         1 <0>         0.1048
     55 H21        -2.8716   -5.4541    2.9185 H         1 <0>         0.0746
@<TRIPOS>BOND
     1    1    2 1
     2    1   36 1
     3    1   37 1
     4    1   38 1
     5    2    7 ar
     6    2    3 ar
     7    3    4 ar
     8    3   39 1
     9    4    5 ar
    10    4   40 1
    11    5    6 ar
    12    5    8 1
    13    6    7 ar
    14    6   41 1
    15    7   42 1
    16    8   12 1
    17    8    9 1
    18    9   10 2
    19    9   30 1
    20   10   11 1
    21   11   12 2
    22   12   13 1
    23   13   14 1
    24   14   15 1
    25   14   43 1
    26   14   44 1
    27   15   25 1
    28   15   16 2
    29   16   17 1
    30   17   18 2
    31   17   19 1
    32   19   24 1
    33   19   20 2
    34   20   21 1
    35   20   29 1
    36   21   22 1
    37   21   23 1
    38   21   26 1
    39   23   24 1
    40   24   25 2
    41   26   27 2
    42   26   28 1
    43   29   45 1
    44   29   46 1
    45   29   47 1
    46   30   35 1
    47   30   31 1
    48   31   32 1
    49   31   48 1
    50   31   49 1
    51   32   33 1
    52   32   50 1
    53   32   51 1
    54   33   34 1
    55   34   35 1
    56   34   52 1
    57   34   53 1
    58   35   54 1
    59   35   55 1
@<TRIPOS>MOLECULE
ZINC49429629
   57    60     0     0     0
SMALL
USER_CHARGES

@<TRIPOS>ATOM
      1 C1         -2.9776   -6.9872   -2.4679 C.3       1 <0>        -0.0964
      2 C2         -2.0912   -6.0023   -1.7500 C.ar      1 <0>         0.1985
      3 C3         -1.4868   -4.9663   -2.4450 C.ar      1 <0>        -0.3421
      4 C4         -0.6796   -4.0823   -1.7468 C.ar      1 <0>         0.1880
      5 N1         -0.5108   -4.2524   -0.4458 N.ar      1 <0>        -0.6254
      6 C5         -1.1029   -5.2533    0.1888 C.ar      1 <0>         0.5986
      7 N2         -1.8847   -6.1128   -0.4483 N.ar      1 <0>        -0.5511
      8 N3         -0.9040   -5.4019    1.5504 N.2       1 <0>        -1.0504
      9 S1          0.0647   -4.3355    2.3669 S.o2      1 <0>         2.6418
     10 O1          1.3840   -4.5265    1.8749 O.2       1 <0>        -1.0177
     11 O2         -0.5902   -3.0752    2.3216 O.2       1 <0>        -1.0171
     12 C6          0.0803   -4.8345    4.0567 C.ar      1 <0>        -0.6349
     13 C7         -0.8671   -4.3360    4.9321 C.ar      1 <0>        -0.0024
     14 C8         -0.8576   -4.7251    6.2572 C.ar      1 <0>        -0.1455
     15 C9          0.1045   -5.6184    6.7101 C.ar      1 <0>         0.1766
     16 C10         1.0542   -6.1176    5.8284 C.ar      1 <0>        -0.1697
     17 C11         1.0363   -5.7282    4.5034 C.ar      1 <0>        -0.0024
     18 N4          0.1171   -6.0143    8.0521 N.am      1 <0>        -0.6725
     19 C12        -1.0409   -6.1267    8.7325 C.2       1 <0>         0.5147
     20 O3         -2.0986   -5.9755    8.1586 O.2       1 <0>        -0.5081
     21 C13        -1.0214   -6.4402   10.2064 C.3       1 <0>        -0.1039
     22 C14        -0.3261   -7.7846   10.4325 C.3       1 <0>        -0.1309
     23 C15        -0.2774   -8.0836   11.9342 C.3       1 <0>         0.1317
     24 N5         -1.6415   -8.0112   12.4752 N.am      1 <0>        -0.6201
     25 C16        -2.4327   -6.7964   12.2365 C.3       1 <0>         0.1092
     26 C17        -2.4572   -6.5119   10.7314 C.3       1 <0>        -0.1177
     27 C18        -2.1574   -9.0398   13.1769 C.2       1 <0>         0.7045
     28 O4         -1.4630  -10.0009   13.4465 O.2       1 <0>        -0.5559
     29 N6         -3.4431   -9.0032   13.5797 N.am      1 <0>        -0.6386
     30 C19        -4.0089  -10.1134   14.2136 C.2       1 <0>         0.0924
     31 C20        -5.2758  -10.2785   14.6858 C.2       1 <0>        -0.2193
     32 C21        -5.6128  -11.4794   15.2836 C.2       1 <0>        -0.1307
     33 C22        -4.6755  -12.4522   15.3811 C.2       1 <0>        -0.2300
     34 S2         -3.2610  -11.6859   14.6074 S.3       1 <0>         0.1471
     35 H1         -4.0051   -6.6234   -2.4609 H         1 <0>         0.0729
     36 H2         -2.6384   -7.0979   -3.4978 H         1 <0>         0.0686
     37 H3         -2.9306   -7.9527   -1.9641 H         1 <0>         0.0728
     38 H4         -1.6414   -4.8507   -3.5077 H         1 <0>         0.1217
     39 H5         -0.1939   -3.2647   -2.2587 H         1 <0>         0.1437
     40 H6         -1.6149   -3.6413    4.5792 H         1 <0>         0.1402
     41 H7         -1.5973   -4.3349    6.9405 H         1 <0>         0.1368
     42 H8          1.8039   -6.8121    6.1776 H         1 <0>         0.1295
     43 H9          1.7721   -6.1191    3.8163 H         1 <0>         0.1414
     44 H10         0.9593   -6.2079    8.4927 H         1 <0>         0.4102
     45 H11        -0.4794   -5.6575   10.7370 H         1 <0>         0.1065
     46 H12        -0.8815   -8.5718    9.9227 H         1 <0>         0.0790
     47 H13         0.6888   -7.7404   10.0373 H         1 <0>         0.0859
     48 H14         0.1269   -9.0830   12.0949 H         1 <0>         0.1029
     49 H15         0.3531   -7.3476   12.4331 H         1 <0>         0.0758
     50 H16        -3.4504   -6.9465   12.5966 H         1 <0>         0.0797
     51 H17        -1.9779   -5.9554   12.7600 H         1 <0>         0.0812
     52 H18        -2.9591   -5.5617   10.5489 H         1 <0>         0.0910
     53 H19        -2.9925   -7.3110   10.2187 H         1 <0>         0.0804
     54 H20        -3.9758   -8.2065   13.4298 H         1 <0>         0.4146
     55 H21        -6.0039   -9.4860   14.5954 H         1 <0>         0.1307
     56 H22        -6.6095  -11.6390   15.6677 H         1 <0>         0.1313
     57 H23        -4.7627  -13.4388   15.8116 H         1 <0>         0.1828
@<TRIPOS>BOND
     1    1    2 1
     2    1   35 1
     3    1   36 1
     4    1   37 1
     5    2    7 ar
     6    2    3 ar
     7    3    4 ar
     8    3   38 1
     9    4    5 ar
    10    4   39 1
    11    5    6 ar
    12    6    7 ar
    13    6    8 1
    14    8    9 1
    15    9   10 2
    16    9   11 2
    17    9   12 1
    18   12   17 ar
    19   12   13 ar
    20   13   14 ar
    21   13   40 1
    22   14   15 ar
    23   14   41 1
    24   15   16 ar
    25   15   18 1
    26   16   17 ar
    27   16   42 1
    28   17   43 1
    29   18   19 am
    30   18   44 1
    31   19   20 2
    32   19   21 1
    33   21   26 1
    34   21   22 1
    35   21   45 1
    36   22   23 1
    37   22   46 1
    38   22   47 1
    39   23   24 1
    40   23   48 1
    41   23   49 1
    42   24   25 1
    43   24   27 am
    44   25   26 1
    45   25   50 1
    46   25   51 1
    47   26   52 1
    48   26   53 1
    49   27   28 2
    50   27   29 am
    51   29   30 1
    52   29   54 1
    53   30   34 1
    54   30   31 2
    55   31   32 1
    56   31   55 1
    57   32   33 2
    58   32   56 1
    59   33   34 1
    60   33   57 1
@<TRIPOS>MOLECULE
ZINC09011720
   61    65     0     0     0
SMALL
USER_CHARGES

@<TRIPOS>ATOM
      1 C1          2.9922   -0.4372   -1.5718 C.3       1 <0>         0.0268
      2 O1          2.4636   -1.7468   -1.3538 O.3       1 <0>        -0.3032
      3 C2          2.6395   -2.6571   -2.3487 C.ar      1 <0>         0.0990
      4 C3          3.3111   -2.2991   -3.5066 C.ar      1 <0>        -0.1745
      5 C4          3.4895   -3.2259   -4.5168 C.ar      1 <0>        -0.1211
      6 C5          2.9985   -4.5105   -4.3751 C.ar      1 <0>        -0.1180
      7 C6          2.3271   -4.8740   -3.2226 C.ar      1 <0>        -0.1755
      8 C7          2.1504   -3.9517   -2.2037 C.ar      1 <0>         0.1060
      9 O2          1.4954   -4.3095   -1.0668 O.3       1 <0>        -0.2977
     10 C8          1.0209   -5.6550   -0.9875 C.3       1 <0>         0.0660
     11 C9          0.3158   -5.8690    0.3534 C.3       1 <0>        -0.1405
     12 C10        -0.1922   -7.3097    0.4383 C.3       1 <0>         0.1157
     13 N1         -0.8673   -7.5146    1.7222 N.pl3     1 <0>        -0.4636
     14 C11        -0.2798   -8.0179    2.8215 C.2       1 <0>         0.2197
     15 C12        -1.2021   -8.0761    3.8545 C.2       1 <0>        -0.2151
     16 C13        -2.4677   -7.5502    3.3024 C.ar      1 <0>        -0.0513
     17 C14        -2.1921   -7.2112    1.9688 C.ar      1 <0>         0.0787
     18 C15        -3.2046   -6.6763    1.1794 C.ar      1 <0>        -0.1172
     19 C16        -4.4615   -6.4812    1.7110 C.ar      1 <0>        -0.1208
     20 C17        -4.7299   -6.8131    3.0300 C.ar      1 <0>        -0.1384
     21 C18        -3.7412   -7.3532    3.8254 C.ar      1 <0>        -0.0867
     22 C19        -0.9787   -8.5423    5.1637 C.2       1 <0>         0.1281
     23 C20         0.1410   -8.1155    5.8732 C.2       1 <0>        -0.2866
     24 C21         0.9560   -7.0498    5.3960 C.2       1 <0>         0.4986
     25 O3          0.6571   -6.4265    4.2365 O.3       1 <0>        -0.6374
     26 N2          2.0090   -6.6788    6.1039 N.2       1 <0>        -0.6711
     27 C22         2.3344   -7.2694    7.2513 C.2       1 <0>         0.6670
     28 O4          3.3191   -6.8748    7.8507 O.2       1 <0>        -0.5723
     29 N3          1.6248   -8.2808    7.7776 N.am      1 <0>        -0.5850
     30 C23         0.5234   -8.7453    7.1483 C.2       1 <0>         0.5675
     31 O5         -0.1299   -9.6585    7.6182 O.2       1 <0>        -0.5361
     32 C24         2.0450   -8.8810    9.0462 C.3       1 <0>         0.1860
     33 C25         1.3844   -8.1540   10.1891 C.2       1 <0>        -0.0168
     34 C26         0.1990   -8.4687   10.7414 C.2       1 <0>        -0.1968
     35 C27        -0.0335   -7.5314   11.7741 C.2       1 <0>        -0.2210
     36 C28         1.0238   -6.7000   11.7911 C.2       1 <0>        -0.0447
     37 O6          1.8821   -7.0854   10.8327 O.3       1 <0>        -0.1608
     38 H1          4.0698   -0.5009   -1.7234 H         1 <0>         0.0542
     39 H2          2.5263    0.0003   -2.4548 H         1 <0>         0.0530
     40 H3          2.7838    0.1880   -0.7036 H         1 <0>         0.1014
     41 H4          3.6950   -1.2961   -3.6200 H         1 <0>         0.1338
     42 H5          4.0131   -2.9456   -5.4188 H         1 <0>         0.1252
     43 H6          3.1396   -5.2315   -5.1667 H         1 <0>         0.1258
     44 H7          1.9443   -5.8781   -3.1146 H         1 <0>         0.1347
     45 H8          0.3193   -5.8414   -1.8007 H         1 <0>         0.0615
     46 H9          1.8627   -6.3426   -1.0692 H         1 <0>         0.0646
     47 H10         1.0174   -5.6826    1.1666 H         1 <0>         0.0967
     48 H11        -0.5260   -5.1815    0.4350 H         1 <0>         0.0813
     49 H12        -0.8937   -7.4961   -0.3749 H         1 <0>         0.0874
     50 H13         0.6496   -7.9972    0.3566 H         1 <0>         0.0942
     51 H14         0.7520   -8.3296    2.8893 H         1 <0>         0.1720
     52 H15        -3.0061   -6.4136    0.1508 H         1 <0>         0.1135
     53 H16        -5.2445   -6.0655    1.0941 H         1 <0>         0.1192
     54 H17        -5.7189   -6.6548    3.4341 H         1 <0>         0.1184
     55 H18        -3.9515   -7.6101    4.8531 H         1 <0>         0.1194
     56 H19        -1.6756   -9.2310    5.6181 H         1 <0>         0.1268
     57 H20         1.7525   -9.9309    9.0660 H         1 <0>         0.1124
     58 H21         3.1278   -8.8036    9.1438 H         1 <0>         0.1059
     59 H22        -0.4509   -9.2811   10.4513 H         1 <0>         0.1491
     60 H23        -0.8949   -7.4906   12.4243 H         1 <0>         0.1444
     61 H24         1.1610   -5.8664   12.4639 H         1 <0>         0.1984
@<TRIPOS>BOND
     1    1    2 1
     2    1   38 1
     3    1   39 1
     4    1   40 1
     5    2    3 1
     6    3    8 ar
     7    3    4 ar
     8    4    5 ar
     9    4   41 1
    10    5    6 ar
    11    5   42 1
    12    6    7 ar
    13    6   43 1
    14    7    8 ar
    15    7   44 1
    16    8    9 1
    17    9   10 1
    18   10   11 1
    19   10   45 1
    20   10   46 1
    21   11   12 1
    22   11   47 1
    23   11   48 1
    24   12   13 1
    25   12   49 1
    26   12   50 1
    27   13   17 1
    28   13   14 1
    29   14   15 2
    30   14   51 1
    31   15   16 1
    32   15   22 1
    33   16   21 ar
    34   16   17 ar
    35   17   18 ar
    36   18   19 ar
    37   18   52 1
    38   19   20 ar
    39   19   53 1
    40   20   21 ar
    41   20   54 1
    42   21   55 1
    43   22   23 2
    44   22   56 1
    45   23   30 1
    46   23   24 1
    47   24   25 1
    48   24   26 2
    49   26   27 1
    50   27   28 2
    51   27   29 am
    52   29   30 am
    53   29   32 1
    54   30   31 2
    55   32   33 1
    56   32   57 1
    57   32   58 1
    58   33   37 1
    59   33   34 2
    60   34   35 1
    61   34   59 1
    62   35   36 2
    63   35   60 1
    64   36   37 1
    65   36   61 1
@<TRIPOS>MOLECULE
ZINC13272891
   54    56     0     0     0
SMALL
USER_CHARGES
4-[[4-[(E)-3-[2-(acetyl-ethyl-amino)thiazol-4-yl]prop-2-enoyl]phenyl]sulfonylamino]benzoic acid
@<TRIPOS>ATOM
      1 C1          3.3698    8.2159   -2.2900 C.3       1 <0>        -0.1768
      2 C2          3.1591    7.7326   -0.8537 C.3       1 <0>         0.0953
      3 N1          1.9495    6.9086   -0.7882 N.am      1 <0>        -0.5147
      4 C3          2.0460    5.5263   -0.8708 C.2       1 <0>         0.3280
      5 N2          1.0867    4.6256   -0.8320 N.2       1 <0>        -0.4850
      6 C4          1.3867    3.3277   -0.9286 C.2       1 <0>         0.0808
      7 C5          2.7161    2.9639   -1.0630 C.2       1 <0>        -0.2286
      8 S1          3.5029    4.5117   -1.0569 S.3       1 <0>         0.0738
      9 C6          0.3333    2.3112   -0.8870 C.2       1 <0>         0.0112
     10 C7         -0.9641    2.6840   -0.7548 C.2       1 <0>        -0.2105
     11 C8         -1.9813    1.7033   -0.7205 C.2       1 <0>         0.4238
     12 O1         -1.6927    0.5231   -0.8097 O.2       1 <0>        -0.4571
     13 C9         -3.3966    2.1100   -0.5763 C.ar      1 <0>        -0.1067
     14 C10        -3.7301    3.4610   -0.4681 C.ar      1 <0>        -0.0890
     15 C11        -5.0520    3.8339   -0.3401 C.ar      1 <0>        -0.0216
     16 C12        -6.0454    2.8712   -0.3069 C.ar      1 <0>        -0.6488
     17 C13        -5.7210    1.5298   -0.4074 C.ar      1 <0>        -0.0333
     18 C14        -4.4035    1.1439   -0.5421 C.ar      1 <0>        -0.0877
     19 S2         -7.7308    3.3555   -0.1352 S.o2      1 <0>         2.6876
     20 O2         -7.7976    4.7284   -0.4958 O.2       1 <0>        -0.9433
     21 O3         -8.5080    2.3587   -0.7844 O.2       1 <0>        -0.9595
     22 N3         -8.1029    3.2708    1.4763 N.pl3     1 <0>        -1.0521
     23 C15        -7.4734    4.1185    2.3804 C.ar      1 <0>         0.0996
     24 C16        -6.4964    3.6183    3.2371 C.ar      1 <0>        -0.1256
     25 C17        -5.8700    4.4527    4.1268 C.ar      1 <0>        -0.0745
     26 C18        -6.2212    5.8054    4.1805 C.ar      1 <0>        -0.0970
     27 C19        -7.2067    6.3035    3.3222 C.ar      1 <0>        -0.0814
     28 C20        -7.8253    5.4647    2.4313 C.ar      1 <0>        -0.1159
     29 C21        -5.5537    6.7041    5.1391 C.2       1 <0>         0.4868
     30 O4         -5.8595    7.8793    5.1844 O.co2     1 <0>        -0.6281
     31 C22         0.7431    7.4927   -0.6477 C.2       1 <0>         0.5078
     32 O5         -0.2645    6.8186   -0.6808 O.2       1 <0>        -0.4680
     33 C23         0.6462    8.9835   -0.4495 C.3       1 <0>        -0.1723
     34 H1          3.4799    7.3557   -2.9503 H         1 <0>         0.0634
     35 H2          2.5098    8.8073   -2.6041 H         1 <0>         0.0674
     36 H3          4.2698    8.8289   -2.3387 H         1 <0>         0.0816
     37 H4          3.0490    8.5927   -0.1934 H         1 <0>         0.1077
     38 H5          4.0191    7.1411   -0.5395 H         1 <0>         0.0901
     39 H6          3.1490    1.9782   -1.1497 H         1 <0>         0.2053
     40 H7          0.5891    1.2649   -0.9661 H         1 <0>         0.1466
     41 H8         -1.2199    3.7303   -0.6757 H         1 <0>         0.1509
     42 H9         -2.9552    4.2131   -0.4890 H         1 <0>         0.1470
     43 H10        -5.3119    4.8792   -0.2611 H         1 <0>         0.1498
     44 H11        -6.5011    0.7833   -0.3808 H         1 <0>         0.1437
     45 H12        -4.1516    0.0967   -0.6212 H         1 <0>         0.1423
     46 H13        -8.7601    2.6297    1.7892 H         1 <0>         0.4216
     47 H14        -6.2286    2.5728    3.1979 H         1 <0>         0.1210
     48 H15        -5.1091    4.0650    4.7879 H         1 <0>         0.1355
     49 H16        -7.4799    7.3476    3.3609 H         1 <0>         0.1344
     50 H17        -8.5862    5.8488    1.7680 H         1 <0>         0.1291
     51 H18         1.6375    9.4273   -0.5404 H         1 <0>         0.0850
     52 H19        -0.0130    9.4086   -1.2064 H         1 <0>         0.1044
     53 H20         0.2439    9.1928    0.5417 H         1 <0>         0.1079
     54 O6         -4.6043    6.2226    5.9654 O.co2     1 <0>        -0.7518
@<TRIPOS>BOND
     1    1    2 1
     2    1   34 1
     3    1   35 1
     4    1   36 1
     5    2    3 1
     6    2   37 1
     7    2   38 1
     8    3    4 1
     9    3   31 am
    10    4    8 1
    11    4    5 2
    12    5    6 1
    13    6    7 2
    14    6    9 1
    15    7    8 1
    16    7   39 1
    17    9   10 2
    18    9   40 1
    19   10   11 1
    20   10   41 1
    21   11   12 2
    22   11   13 1
    23   13   18 ar
    24   13   14 ar
    25   14   15 ar
    26   14   42 1
    27   15   16 ar
    28   15   43 1
    29   16   17 ar
    30   16   19 1
    31   17   18 ar
    32   17   44 1
    33   18   45 1
    34   19   20 2
    35   19   21 2
    36   19   22 1
    37   22   23 1
    38   22   46 1
    39   23   28 ar
    40   23   24 ar
    41   24   25 ar
    42   24   47 1
    43   25   26 ar
    44   25   48 1
    45   26   27 ar
    46   26   29 1
    47   27   28 ar
    48   27   49 1
    49   28   50 1
    50   29   30 2
    51   29   54 1
    52   31   32 2
    53   31   33 1
    54   33   51 1
    55   33   52 1
    56   33   53 1
@<TRIPOS>MOLECULE
ZINC35565868
   55    58     0     0     0
SMALL
USER_CHARGES

@<TRIPOS>ATOM
      1 C1         -0.5266    1.5647   -0.0283 C.3       1 <0>        -0.0850
      2 C2         -1.5495    0.6112   -0.5902 C.2       1 <0>         0.1190
      3 C3         -1.2800   -0.1867   -1.6962 C.2       1 <0>        -0.2608
      4 S1         -2.8323   -1.0552   -1.8563 S.3       1 <0>         0.1655
      5 C4         -3.6311   -0.3454   -0.5561 C.2       1 <0>         0.0358
      6 N1         -2.7402    0.4835   -0.0609 N.2       1 <0>        -0.5247
      7 C5         -5.0343   -0.6037   -0.0712 C.3       1 <0>        -0.0633
      8 C6         -0.0614   -0.2867   -2.5060 C.2       1 <0>         0.5552
      9 O1          0.8727    0.4668   -2.2966 O.2       1 <0>        -0.4493
     10 C7          0.0327   -1.2944   -3.5687 C.2       1 <0>        -0.4941
     11 C8          0.1164   -1.0595   -4.8987 C.2       1 <0>         0.2793
     12 C9          0.1947   -2.3473   -5.6155 C.2       1 <0>         0.5112
     13 O2          0.2788   -2.4697   -6.8215 O.2       1 <0>        -0.4562
     14 N2          0.1597   -3.3656   -4.7369 N.am      1 <0>        -0.5061
     15 C10         0.0616   -2.7943   -3.3885 C.3       1 <0>         0.2635
     16 H1         -0.8559   -3.1317   -2.9064 H         1 <0>         0.0873
     17 C11         1.2583   -3.1945   -2.5647 C.ar      1 <0>        -0.0758
     18 C12         2.5201   -3.1877   -3.1306 C.ar      1 <0>        -0.0973
     19 C13         3.6199   -3.5542   -2.3775 C.ar      1 <0>        -0.1000
     20 C14         3.4608   -3.9288   -1.0571 C.ar      1 <0>        -0.1420
     21 C15         2.1962   -3.9365   -0.4872 C.ar      1 <0>         0.1043
     22 C16         1.0947   -3.5623   -1.2434 C.ar      1 <0>        -0.1286
     23 O3          2.0371   -4.3045    0.8113 O.3       1 <0>        -0.4990
     24 C17         0.2122   -4.7109   -5.0485 C.2       1 <0>         0.3390
     25 N3          0.3111   -5.2703   -6.2413 N.2       1 <0>        -0.5551
     26 C18         0.3509   -6.5700   -6.3860 C.2       1 <0>         0.2182
     27 C19         0.2835   -7.3226   -5.2202 C.2       1 <0>        -0.3390
     28 S2          0.1726   -6.0252   -3.9981 S.3       1 <0>         0.1962
     29 C20         0.3026   -8.7731   -5.0429 C.2       1 <0>         0.5724
     30 O4          0.3886   -9.5033   -6.0122 O.2       1 <0>        -0.5043
     31 O5          0.2250   -9.3024   -3.8042 O.3       1 <0>        -0.3451
     32 C21         0.2493  -10.7277   -3.7051 C.3       1 <0>         0.0954
     33 C22         0.1538  -11.1323   -2.2565 C.2       1 <0>        -0.1556
     34 C23        -0.6553  -12.0983   -1.8982 C.2       1 <0>        -0.1716
     35 C24         0.4633   -7.2155   -7.7432 C.3       1 <0>        -0.0911
     36 O6          0.1260    0.1631   -5.4798 O.3       1 <0>        -0.6279
     37 H2          0.0733    1.0522    0.7237 H         1 <0>         0.0744
     38 H3          0.1209    1.9174   -0.8311 H         1 <0>         0.0946
     39 H4         -1.0342    2.4141    0.4288 H         1 <0>         0.0702
     40 H5         -5.0220   -1.4068    0.6656 H         1 <0>         0.0879
     41 H6         -5.4335    0.3021    0.3853 H         1 <0>         0.0893
     42 H7         -5.6624   -0.8931   -0.9137 H         1 <0>         0.0849
     43 H8          2.6465   -2.8958   -4.1627 H         1 <0>         0.1187
     44 H9          4.6043   -3.5481   -2.8217 H         1 <0>         0.1262
     45 H10         4.3203   -4.2158   -0.4694 H         1 <0>         0.1263
     46 H11         0.1097   -3.5629   -0.8006 H         1 <0>         0.1278
     47 H12         2.0992   -3.5710    1.4384 H         1 <0>         0.3876
     48 H13        -0.5944  -11.1446   -4.2551 H         1 <0>         0.0741
     49 H14         1.1805  -11.1055   -4.1272 H         1 <0>         0.0789
     50 H15         0.7523  -10.6258   -1.5138 H         1 <0>         0.1218
     51 H16        -0.7237  -12.3882   -0.8601 H         1 <0>         0.1082
     52 H17        -1.2538  -12.6048   -2.6409 H         1 <0>         0.0996
     53 H18         1.5151   -7.3483   -7.9963 H         1 <0>         0.0845
     54 H19        -0.0317   -8.1864   -7.7258 H         1 <0>         0.0941
     55 H20        -0.0123   -6.5785   -8.4889 H         1 <0>         0.0804
@<TRIPOS>BOND
     1    1    2 1
     2    1   37 1
     3    1   38 1
     4    1   39 1
     5    2    6 1
     6    2    3 2
     7    3    4 1
     8    3    8 1
     9    4    5 1
    10    5    6 2
    11    5    7 1
    12    7   40 1
    13    7   41 1
    14    7   42 1
    15    8    9 2
    16    8   10 1
    17   10   15 1
    18   10   11 2
    19   11   12 1
    20   11   36 1
    21   12   13 2
    22   12   14 am
    23   14   15 1
    24   14   24 1
    25   15   16 1
    26   15   17 1
    27   17   22 ar
    28   17   18 ar
    29   18   19 ar
    30   18   43 1
    31   19   20 ar
    32   19   44 1
    33   20   21 ar
    34   20   45 1
    35   21   22 ar
    36   21   23 1
    37   22   46 1
    38   23   47 1
    39   24   28 1
    40   24   25 2
    41   25   26 1
    42   26   27 2
    43   26   35 1
    44   27   28 1
    45   27   29 1
    46   29   30 2
    47   29   31 1
    48   31   32 1
    49   32   33 1
    50   32   48 1
    51   32   49 1
    52   33   34 2
    53   33   50 1
    54   34   51 1
    55   34   52 1
    56   35   53 1
    57   35   54 1
    58   35   55 1
@<TRIPOS>MOLECULE
ZINC12520837
   62    65     0     0     0
SMALL
USER_CHARGES

@<TRIPOS>ATOM
      1 C1          0.0758    1.3792   -0.4697 C.3       1 <0>        -0.1480
      2 C2          0.1337   -0.1429   -0.3255 C.3       1 <0>        -0.0913
      3 H1          0.7358   -0.5618   -1.1318 H         1 <0>         0.0751
      4 C3         -1.2839   -0.7167   -0.3958 C.3       1 <0>        -0.1120
      5 C4         -1.2291   -2.2316   -0.2312 C.3       1 <0>         0.1312
      6 C5         -0.5849   -2.6069    1.0988 C.3       1 <0>        -0.1032
      7 C6          0.8302   -2.0262    1.1637 C.3       1 <0>        -0.0607
      8 C7          0.7627   -0.5043    1.0216 C.3       1 <0>        -0.1081
      9 C8          1.6729   -2.6077    0.0268 C.3       1 <0>        -0.1611
     10 C9          1.4680   -2.3855    2.5072 C.3       1 <0>        -0.1402
     11 C10        -2.6158   -2.8240   -0.3319 C.2       1 <0>         0.5372
     12 O1         -3.5632   -2.6017    0.3912 O.2       1 <0>        -0.4573
     13 N1         -2.5774   -3.6518   -1.3966 N.am      1 <0>        -0.5634
     14 C11        -1.3687   -3.6596   -1.9717 C.2       1 <0>         0.7048
     15 O2         -1.0890   -4.3274   -2.9479 O.2       1 <0>        -0.5395
     16 N2         -0.4976   -2.8439   -1.3477 N.am      1 <0>        -0.7180
     17 C12        -3.7172   -4.4442   -1.8648 C.3       1 <0>         0.1019
     18 C13        -4.5043   -3.6458   -2.8718 C.2       1 <0>         0.4980
     19 O3         -4.1483   -2.5251   -3.1690 O.2       1 <0>        -0.4994
     20 N3         -5.6039   -4.1770   -3.4420 N.am      1 <0>        -0.6685
     21 C14        -6.2723   -3.4809   -4.4552 C.ar      1 <0>         0.1770
     22 C15        -7.6546   -3.5630   -4.5607 C.ar      1 <0>        -0.1663
     23 C16        -8.3113   -2.8748   -5.5619 C.ar      1 <0>        -0.0033
     24 C17        -7.5940   -2.1046   -6.4588 C.ar      1 <0>        -0.6336
     25 C18        -6.2175   -2.0212   -6.3568 C.ar      1 <0>        -0.0027
     26 C19        -5.5553   -2.7020   -5.3540 C.ar      1 <0>        -0.1423
     27 S1         -8.4357   -1.2281   -7.7348 S.o2      1 <0>         2.6422
     28 O4         -7.4905   -1.0180   -8.7748 O.2       1 <0>        -1.0168
     29 O5         -9.6663   -1.9054   -7.9491 O.2       1 <0>        -1.0173
     30 N4         -8.8168    0.2667   -7.1326 N.2       1 <0>        -1.0499
     31 C20        -9.4901    1.1807   -7.9245 C.ar      1 <0>         0.5946
     32 N5         -9.8269    0.8414   -9.1601 N.ar      1 <0>        -0.6228
     33 C21       -10.4711    1.6911   -9.9428 C.ar      1 <0>         0.1869
     34 C22       -10.7931    2.9482   -9.4558 C.ar      1 <0>        -0.3462
     35 C23       -10.4257    3.2703   -8.1587 C.ar      1 <0>         0.1769
     36 N6         -9.7872    2.3722   -7.4270 N.ar      1 <0>        -0.5529
     37 H2          1.0852    1.7876   -0.4192 H         1 <0>         0.0582
     38 H3         -0.3726    1.6364   -1.4293 H         1 <0>         0.0592
     39 H4         -0.5263    1.7979    0.3366 H         1 <0>         0.0583
     40 H5         -1.8898   -0.2864    0.4015 H         1 <0>         0.0905
     41 H6         -1.7272   -0.4721   -1.3611 H         1 <0>         0.0810
     42 H7         -1.1808   -2.2036    1.9176 H         1 <0>         0.0911
     43 H8         -0.5364   -3.6923    1.1854 H         1 <0>         0.0757
     44 H9          1.7692   -0.0895    1.0753 H         1 <0>         0.0701
     45 H10         0.1565   -0.0911    1.8278 H         1 <0>         0.0703
     46 H11         1.5469   -1.9976   -0.8676 H         1 <0>         0.0632
     47 H12         2.7231   -2.6121    0.3186 H         1 <0>         0.0643
     48 H13         1.3491   -3.6277   -0.1805 H         1 <0>         0.0653
     49 H14         1.5152   -3.4697    2.6087 H         1 <0>         0.0569
     50 H15         2.4755   -1.9720    2.5533 H         1 <0>         0.0595
     51 H16         0.8677   -1.9706    3.3169 H         1 <0>         0.0582
     52 H17         0.4297   -2.6913   -1.5879 H         1 <0>         0.4418
     53 H18        -3.3555   -5.3609   -2.3307 H         1 <0>         0.1328
     54 H19        -4.3575   -4.6947   -1.0191 H         1 <0>         0.1290
     55 H20        -5.9319   -5.0419   -3.1500 H         1 <0>         0.4129
     56 H21        -8.2154   -4.1646   -3.8607 H         1 <0>         0.1309
     57 H22        -9.3863   -2.9384   -5.6447 H         1 <0>         0.1421
     58 H23        -5.6600   -1.4191   -7.0590 H         1 <0>         0.1404
     59 H24        -4.4807   -2.6324   -5.2717 H         1 <0>         0.1354
     60 H25       -10.7427    1.4089  -10.9493 H         1 <0>         0.1431
     61 H26       -11.3184    3.6613  -10.0737 H         1 <0>         0.1220
     62 H27       -10.6613    4.2415   -7.7492 H         1 <0>         0.1468
@<TRIPOS>BOND
     1    1    2 1
     2    1   37 1
     3    1   38 1
     4    1   39 1
     5    2    3 1
     6    2    8 1
     7    2    4 1
     8    4    5 1
     9    4   40 1
    10    4   41 1
    11    5   16 1
    12    5    6 1
    13    5   11 1
    14    6    7 1
    15    6   42 1
    16    6   43 1
    17    7    8 1
    18    7    9 1
    19    7   10 1
    20    8   44 1
    21    8   45 1
    22    9   46 1
    23    9   47 1
    24    9   48 1
    25   10   49 1
    26   10   50 1
    27   10   51 1
    28   11   12 2
    29   11   13 am
    30   13   14 am
    31   13   17 1
    32   14   15 2
    33   14   16 am
    34   16   52 1
    35   17   18 1
    36   17   53 1
    37   17   54 1
    38   18   19 2
    39   18   20 am
    40   20   21 1
    41   20   55 1
    42   21   26 ar
    43   21   22 ar
    44   22   23 ar
    45   22   56 1
    46   23   24 ar
    47   23   57 1
    48   24   25 ar
    49   24   27 1
    50   25   26 ar
    51   25   58 1
    52   26   59 1
    53   27   28 2
    54   27   29 2
    55   27   30 1
    56   30   31 1
    57   31   36 ar
    58   31   32 ar
    59   32   33 ar
    60   33   34 ar
    61   33   60 1
    62   34   35 ar
    63   34   61 1
    64   35   36 ar
    65   35   62 1
@<TRIPOS>MOLECULE
ZINC59087179
   49    52     0     0     0
SMALL
USER_CHARGES

@<TRIPOS>ATOM
      1 C1         -0.5222    0.4955    2.3445 C.3       1 <0>        -0.1517
      2 C2         -0.4465   -0.9429    1.8285 C.3       1 <0>         0.0602
      3 O1          0.3916   -0.9906    0.6721 O.3       1 <0>        -0.3512
      4 C3          0.5638   -2.1894    0.0933 C.2       1 <0>         0.4378
      5 O2          0.0209   -3.1659    0.5533 O.2       1 <0>        -0.4808
      6 C4          1.4343   -2.3173   -1.1302 C.3       1 <0>         0.1177
      7 N1          1.4603   -3.7154   -1.5670 N.pl3     1 <0>        -0.4535
      8 C5          2.4056   -4.6058   -1.2199 C.2       1 <0>         0.1807
      9 C6          2.1259   -5.8306   -1.8055 C.2       1 <0>        -0.1894
     10 C7          0.8823   -5.6390   -2.5800 C.ar      1 <0>        -0.0541
     11 C8          0.5134   -4.2989   -2.3865 C.ar      1 <0>         0.1031
     12 C9         -0.6390   -3.8150   -2.9966 C.ar      1 <0>        -0.1122
     13 C10        -1.4068   -4.6509   -3.7789 C.ar      1 <0>        -0.0840
     14 C11        -1.0423   -5.9762   -3.9656 C.ar      1 <0>        -0.1055
     15 C12         0.1022   -6.4716   -3.3751 C.ar      1 <0>        -0.0436
     16 Br1        -2.1116   -7.1050   -5.0419 Br        1 <0>        -0.0567
     17 C13         2.8752   -7.0163   -1.6870 C.2       1 <0>         0.1133
     18 C14         4.2616   -6.9794   -1.8124 C.2       1 <0>        -0.2639
     19 C15         5.0610   -8.1194   -1.5143 C.2       1 <0>         0.4950
     20 O3          4.4862   -9.2687   -1.1008 O.3       1 <0>        -0.6439
     21 N2          6.3735   -8.0374   -1.6485 N.2       1 <0>        -0.6704
     22 C16         6.9753   -6.9217   -2.0540 C.2       1 <0>         0.6663
     23 O4          8.1896   -6.9185   -2.1549 O.2       1 <0>        -0.5699
     24 N3          6.3028   -5.7995   -2.3572 N.am      1 <0>        -0.5831
     25 C17         4.9557   -5.7617   -2.2640 C.2       1 <0>         0.5683
     26 O5          4.3354   -4.7516   -2.5409 O.2       1 <0>        -0.5299
     27 C18         7.0351   -4.6093   -2.7972 C.3       1 <0>         0.1876
     28 C19         7.1756   -4.6321   -4.2975 C.2       1 <0>        -0.0179
     29 C20         6.3104   -4.0959   -5.1769 C.2       1 <0>        -0.1946
     30 C21         6.8300   -4.3467   -6.4676 C.2       1 <0>        -0.2213
     31 C22         7.9817   -5.0212   -6.2998 C.2       1 <0>        -0.0431
     32 O6          8.1889   -5.1862   -4.9831 O.3       1 <0>        -0.1605
     33 H1          0.4780    0.8408    2.6062 H         1 <0>         0.0678
     34 H2         -0.9371    1.1386    1.5683 H         1 <0>         0.0670
     35 H3         -1.1615    0.5319    3.2266 H         1 <0>         0.0804
     36 H4         -0.0316   -1.5859    2.6047 H         1 <0>         0.0695
     37 H5         -1.4467   -1.2881    1.5668 H         1 <0>         0.0687
     38 H6          1.0319   -1.6945   -1.9292 H         1 <0>         0.1338
     39 H7          2.4469   -1.9924   -0.8913 H         1 <0>         0.1403
     40 H8          3.2530   -4.3986   -0.5832 H         1 <0>         0.1755
     41 H9         -0.9323   -2.7850   -2.8573 H         1 <0>         0.1232
     42 H10        -2.3008   -4.2704   -4.2506 H         1 <0>         0.1335
     43 H11         0.3847   -7.5039   -3.5204 H         1 <0>         0.1365
     44 H12         2.3748   -7.9547   -1.4989 H         1 <0>         0.1481
     45 H13         6.4889   -3.7151   -2.4970 H         1 <0>         0.1108
     46 H14         8.0244   -4.6016   -2.3397 H         1 <0>         0.1060
     47 H15         5.3943   -3.5744   -4.9420 H         1 <0>         0.1473
     48 H16         6.3871   -4.0534   -7.4079 H         1 <0>         0.1439
     49 H17         8.6315   -5.3678   -7.0897 H         1 <0>         0.1986
@<TRIPOS>BOND
     1    1    2 1
     2    1   33 1
     3    1   34 1
     4    1   35 1
     5    2    3 1
     6    2   36 1
     7    2   37 1
     8    3    4 1
     9    4    5 2
    10    4    6 1
    11    6    7 1
    12    6   38 1
    13    6   39 1
    14    7   11 1
    15    7    8 1
    16    8    9 2
    17    8   40 1
    18    9   10 1
    19    9   17 1
    20   10   15 ar
    21   10   11 ar
    22   11   12 ar
    23   12   13 ar
    24   12   41 1
    25   13   14 ar
    26   13   42 1
    27   14   15 ar
    28   14   16 1
    29   15   43 1
    30   17   18 2
    31   17   44 1
    32   18   25 1
    33   18   19 1
    34   19   20 1
    35   19   21 2
    36   21   22 1
    37   22   23 2
    38   22   24 am
    39   24   25 am
    40   24   27 1
    41   25   26 2
    42   27   28 1
    43   27   45 1
    44   27   46 1
    45   28   32 1
    46   28   29 2
    47   29   30 1
    48   29   47 1
    49   30   31 2
    50   30   48 1
    51   31   32 1
    52   31   49 1
@<TRIPOS>MOLECULE
ZINC18181172
   54    59     0     0     0
SMALL
USER_CHARGES

@<TRIPOS>ATOM
      1 C1          0.1288   -2.8524    2.4877 C.3       1 <0>        -0.1206
      2 C2          0.0721   -2.0904    1.1888 C.ar      1 <0>        -0.0595
      3 C3          0.1673   -2.7647   -0.0131 C.ar      1 <0>        -0.0482
      4 C4          0.1154   -2.0663   -1.2051 C.ar      1 <0>        -0.0284
      5 C5         -0.0320   -0.6912   -1.1983 C.ar      1 <0>        -0.0512
      6 C6         -0.1274   -0.0116    0.0001 C.ar      1 <0>        -0.0869
      7 C7         -0.0817   -0.7109    1.1988 C.ar      1 <0>         0.1534
      8 N1         -0.1849   -0.0245    2.4169 N.am      1 <0>        -0.5240
      9 C8         -1.3476    0.1407    3.0577 C.2       1 <0>         0.5404
     10 O1         -2.4221   -0.2705    2.6758 O.2       1 <0>        -0.4390
     11 C9         -1.1135    0.9195    4.3325 C.3       1 <0>        -0.1418
     12 H1         -1.4491    0.3889    5.2236 H         1 <0>         0.1643
     13 C10        -1.7473    2.3209    4.1905 C.3       1 <0>         0.1345
     14 H2         -1.9840    2.5253    3.1463 H         1 <0>         0.1065
     15 O2         -0.7373    3.2392    4.6655 O.3       1 <0>        -0.2948
     16 C11         0.5054    2.7254    4.1643 C.3       1 <0>         0.0238
     17 C12         0.4207    1.1804    4.3151 C.3       1 <0>        -0.1286
     18 H3          0.9296    0.8013    5.2012 H         1 <0>         0.1705
     19 C13         0.8720    0.5137    3.0356 C.2       1 <0>         0.5291
     20 O3          2.0143    0.4754    2.6314 O.2       1 <0>        -0.4386
     21 C14         1.6722    3.2737    4.9366 C.2       1 <0>         0.4357
     22 O4          1.8661    3.1599    6.1279 O.2       1 <0>        -0.3798
     23 C15         2.5373    3.9765    3.9693 C.ar      1 <0>        -0.1374
     24 C16         3.7384    4.6650    4.1531 C.ar      1 <0>        -0.0528
     25 C17         4.3741    5.2493    3.0746 C.ar      1 <0>        -0.0886
     26 C18         3.8287    5.1581    1.8060 C.ar      1 <0>        -0.0907
     27 C19         2.6405    4.4833    1.6021 C.ar      1 <0>        -0.0518
     28 C20         1.9807    3.8861    2.6784 C.ar      1 <0>        -0.1394
     29 C21         0.7188    3.1229    2.7303 C.2       1 <0>         0.3993
     30 O5         -0.0077    2.8654    1.7945 O.2       1 <0>        -0.4000
     31 C22        -2.9897    2.4218    5.0374 C.ar      1 <0>        -0.1124
     32 C23        -2.8892    2.7651    6.3728 C.ar      1 <0>        -0.0595
     33 C24        -4.0279    2.8584    7.1503 C.ar      1 <0>        -0.1547
     34 C25        -5.2697    2.6080    6.5914 C.ar      1 <0>         0.1137
     35 C26        -5.3690    2.2642    5.2539 C.ar      1 <0>        -0.1522
     36 C27        -4.2294    2.1766    4.4770 C.ar      1 <0>        -0.0623
     37 F1         -6.3835    2.6985    7.3507 F         1 <0>        -0.1347
     38 N2          0.2182   -2.7917   -2.4913 N.pl3     1 <0>         0.0302
     39 O6          0.3475   -3.9938   -2.4987 O.2       1 <0>        -0.1487
     40 O7          0.1730   -2.1822   -3.5344 O.3       1 <0>        -0.1474
     41 H4         -0.8844   -3.0644    2.8292 H         1 <0>         0.0877
     42 H5          0.6646   -3.7894    2.3362 H         1 <0>         0.0879
     43 H6          0.6473   -2.2545    3.2373 H         1 <0>         0.0688
     44 H7          0.2829   -3.8385   -0.0216 H         1 <0>         0.1651
     45 H8         -0.0723   -0.1483   -2.1310 H         1 <0>         0.1651
     46 H9         -0.2421    1.0623    0.0049 H         1 <0>         0.1576
     47 H10         4.1707    4.7410    5.1399 H         1 <0>         0.1450
     48 H11         5.3028    5.7804    3.2224 H         1 <0>         0.1456
     49 H12         4.3350    5.6177    0.9700 H         1 <0>         0.1448
     50 H13         2.2213    4.4175    0.6089 H         1 <0>         0.1412
     51 H14        -1.9205    2.9601    6.8086 H         1 <0>         0.1424
     52 H15        -3.9492    3.1263    8.1936 H         1 <0>         0.1417
     53 H16        -6.3371    2.0683    4.8169 H         1 <0>         0.1421
     54 H17        -4.3071    1.9129    3.4326 H         1 <0>         0.1377
@<TRIPOS>BOND
     1    1    2 1
     2    1   41 1
     3    1   42 1
     4    1   43 1
     5    2    7 ar
     6    2    3 ar
     7    3    4 ar
     8    3   44 1
     9    4    5 ar
    10    4   38 1
    11    5    6 ar
    12    5   45 1
    13    6    7 ar
    14    6   46 1
    15    7    8 1
    16    8   19 am
    17    8    9 am
    18    9   10 2
    19    9   11 1
    20   11   12 1
    21   11   17 1
    22   11   13 1
    23   13   14 1
    24   13   15 1
    25   13   31 1
    26   15   16 1
    27   16   29 1
    28   16   17 1
    29   16   21 1
    30   17   18 1
    31   17   19 1
    32   19   20 2
    33   21   22 2
    34   21   23 1
    35   23   28 ar
    36   23   24 ar
    37   24   25 ar
    38   24   47 1
    39   25   26 ar
    40   25   48 1
    41   26   27 ar
    42   26   49 1
    43   27   28 ar
    44   27   50 1
    45   28   29 1
    46   29   30 2
    47   31   36 ar
    48   31   32 ar
    49   32   33 ar
    50   32   51 1
    51   33   34 ar
    52   33   52 1
    53   34   35 ar
    54   34   37 1
    55   35   36 ar
    56   35   53 1
    57   36   54 1
    58   38   39 2
    59   38   40 1
@<TRIPOS>MOLECULE
ZINC08738557
   51    54     0     0     0
SMALL
USER_CHARGES
ethyl 2-[(2R)-2-(2-fluorophenyl)-4-hydroxy-3-(5-methylfuran-2-carbonyl)-5-oxo-2H-pyrrol-1-yl]-4-methyl-thiazole-5-carboxylate
@<TRIPOS>ATOM
      1 C1          1.9123   12.4611   -0.1081 C.3       1 <0>        -0.1542
      2 C2          3.3847   12.0610   -0.2219 C.3       1 <0>         0.0614
      3 O1          3.4940   10.6363   -0.2025 O.3       1 <0>        -0.3494
      4 C3          4.7355   10.1159   -0.2948 C.2       1 <0>         0.5707
      5 O2          5.6987   10.8532   -0.3891 O.2       1 <0>        -0.5036
      6 C4          4.9231    8.6666   -0.2814 C.2       1 <0>        -0.3249
      7 C5          6.0930    7.9224   -0.3637 C.2       1 <0>         0.2147
      8 N1          5.9900    6.6203   -0.3237 N.2       1 <0>        -0.5478
      9 C6          4.8142    6.0199   -0.2194 C.2       1 <0>         0.3731
     10 S1          3.7111    7.3594   -0.1545 S.3       1 <0>         0.1342
     11 N2          4.5356    4.6673   -0.1688 N.am      1 <0>        -0.5042
     12 C7          3.2035    4.0636   -0.0459 C.3       1 <0>         0.2679
     13 H1          2.7113    4.4203    0.8709 H         1 <0>         0.0943
     14 C8          3.4194    2.5682   -0.0340 C.2       1 <0>        -0.4838
     15 C9          4.7536    2.3658   -0.1354 C.2       1 <0>         0.2784
     16 C10         5.4375    3.6704   -0.2238 C.2       1 <0>         0.5135
     17 O3          6.6387    3.8222   -0.3267 O.2       1 <0>        -0.4544
     18 O4          5.3641    1.1576   -0.1551 O.3       1 <0>        -0.6279
     19 C11         2.3830    1.5350    0.0733 C.2       1 <0>         0.5475
     20 O5          2.1828    0.7739   -0.8570 O.2       1 <0>        -0.4475
     21 C12         1.5884    1.4183    1.2996 C.2       1 <0>        -0.0649
     22 C13         0.5224    0.5676    1.4985 C.2       1 <0>        -0.1473
     23 C14         0.0659    0.7979    2.8043 C.2       1 <0>        -0.2244
     24 C15         0.8594    1.7518    3.3426 C.2       1 <0>        -0.0003
     25 O6          1.7705    2.1247    2.4347 O.3       1 <0>        -0.1412
     26 C16         0.7337    2.3104    4.7366 C.3       1 <0>        -0.0776
     27 C17         2.3468    4.4543   -1.2226 C.ar      1 <0>        -0.1240
     28 C18         2.9379    4.8068   -2.4213 C.ar      1 <0>        -0.0777
     29 C19         2.1523    5.1597   -3.5025 C.ar      1 <0>        -0.1230
     30 C20         0.7748    5.1714   -3.3829 C.ar      1 <0>        -0.0928
     31 C21         0.1819    4.8248   -2.1840 C.ar      1 <0>        -0.1506
     32 C22         0.9678    4.4656   -1.1018 C.ar      1 <0>         0.1126
     33 F1          0.3891    4.1261    0.0709 F         1 <0>        -0.1324
     34 C23         7.4362    8.5941   -0.4888 C.3       1 <0>        -0.0882
     35 H2          1.8282   13.5578   -0.1230 H         1 <0>         0.0794
     36 H3          1.4991   12.0744    0.8352 H         1 <0>         0.0674
     37 H4          1.3511   12.0387   -0.9546 H         1 <0>         0.0676
     38 H5          3.7979   12.4477   -1.1652 H         1 <0>         0.0686
     39 H6          3.9459   12.4834    0.6246 H         1 <0>         0.0685
     40 H7          0.1155   -0.1352    0.7866 H         1 <0>         0.1533
     41 H8         -0.7628    0.3043    3.2900 H         1 <0>         0.1486
     42 H9          1.5121    3.0705    4.8986 H         1 <0>         0.0774
     43 H10         0.8556    1.4989    5.4691 H         1 <0>         0.0855
     44 H11        -0.2583    2.7695    4.8596 H         1 <0>         0.0856
     45 H12         4.0139    4.8024   -2.5145 H         1 <0>         0.1221
     46 H13         2.6149    5.4311   -4.4399 H         1 <0>         0.1280
     47 H14         0.1621    5.4518   -4.2269 H         1 <0>         0.1311
     48 H15        -0.8940    4.8343   -2.0907 H         1 <0>         0.1352
     49 H16         8.2253    7.8294   -0.5390 H         1 <0>         0.0811
     50 H17         7.6062    9.2395    0.3856 H         1 <0>         0.0870
     51 H18         7.4575    9.2036   -1.4042 H         1 <0>         0.0871
@<TRIPOS>BOND
     1    1    2 1
     2    1   35 1
     3    1   36 1
     4    1   37 1
     5    2    3 1
     6    2   38 1
     7    2   39 1
     8    3    4 1
     9    4    5 2
    10    4    6 1
    11    6   10 1
    12    6    7 2
    13    7    8 1
    14    7   34 1
    15    8    9 2
    16    9   10 1
    17    9   11 1
    18   11   16 am
    19   11   12 1
    20   12   13 1
    21   12   14 1
    22   12   27 1
    23   14   15 2
    24   14   19 1
    25   15   16 1
    26   15   18 1
    27   16   17 2
    28   19   20 2
    29   19   21 1
    30   21   25 1
    31   21   22 2
    32   22   23 1
    33   22   40 1
    34   23   24 2
    35   23   41 1
    36   24   25 1
    37   24   26 1
    38   26   42 1
    39   26   43 1
    40   26   44 1
    41   27   32 ar
    42   27   28 ar
    43   28   29 ar
    44   28   45 1
    45   29   30 ar
    46   29   46 1
    47   30   31 ar
    48   30   47 1
    49   31   32 ar
    50   31   48 1
    51   32   33 1
    52   34   49 1
    53   34   50 1
    54   34   51 1
@<TRIPOS>MOLECULE
ZINC33740061
   61    65     0     0     0
SMALL
USER_CHARGES
(3R)-1-butyl-3'-hydroxy-4'-(5-methylfuran-2-carbonyl)-1'-[[(2R)-tetrahydrofuran-2-yl]methyl]spiro[indoline-3,5'-pyrrole]-2,2'-dione
@<TRIPOS>ATOM
      1 C1         -2.2528    9.7795    1.9732 C.3       1 <0>        -0.1521
      2 C2         -3.0909    8.5371    1.6654 C.3       1 <0>        -0.1194
      3 C3         -2.2339    7.5175    0.9124 C.3       1 <0>        -0.1366
      4 C4         -3.0315    6.2267    0.7161 C.3       1 <0>         0.1112
      5 N1         -2.1724    5.2101    0.1040 N.am      1 <0>        -0.5507
      6 C5         -1.9584    5.0964   -1.2710 C.ar      1 <0>         0.1661
      7 C6         -2.4545    5.8469   -2.3347 C.ar      1 <0>        -0.1490
      8 C7         -2.0926    5.5384   -3.6295 C.ar      1 <0>        -0.0879
      9 C8         -1.2359    4.4825   -3.8826 C.ar      1 <0>        -0.1506
     10 C9         -0.7391    3.7318   -2.8317 C.ar      1 <0>        -0.0479
     11 C10        -1.0978    4.0368   -1.5378 C.ar      1 <0>        -0.1219
     12 C11        -0.7476    3.4394   -0.2013 C.3       1 <0>         0.2664
     13 C12        -1.4984    4.2775    0.8020 C.2       1 <0>         0.5430
     14 O1         -1.4952    4.1382    2.0069 O.2       1 <0>        -0.4853
     15 C13         0.7350    3.4894    0.0491 C.2       1 <0>        -0.4695
     16 C14         1.1331    2.2103    0.2523 C.2       1 <0>         0.2892
     17 C15        -0.0372    1.3149    0.1445 C.2       1 <0>         0.5202
     18 O2         -0.0061    0.1073    0.2766 O.2       1 <0>        -0.5085
     19 N2         -1.1434    2.0350   -0.1279 N.am      1 <0>        -0.5888
     20 C16        -2.4968    1.5060   -0.3142 C.3       1 <0>         0.1352
     21 C17        -3.2201    1.4697    1.0335 C.3       1 <0>         0.0509
     22 H1         -3.2168    2.4736    1.4830 H         1 <0>         0.0699
     23 C18        -4.6430    0.9072    0.8495 C.3       1 <0>        -0.1483
     24 C19        -4.6840   -0.3319    1.7767 C.3       1 <0>        -0.1522
     25 C20        -3.5285   -0.0354    2.7663 C.3       1 <0>         0.0474
     26 O3         -2.5251    0.5947    1.9378 O.3       1 <0>        -0.3456
     27 O4          2.4015    1.8156    0.5132 O.3       1 <0>        -0.5831
     28 C21         1.5828    4.6873    0.0693 C.2       1 <0>         0.5084
     29 O5          1.0766    5.7932   -0.0041 O.2       1 <0>        -0.5110
     30 C22         3.0384    4.5532    0.1778 C.2       1 <0>        -0.0629
     31 C23         3.9431    5.5873    0.2873 C.2       1 <0>        -0.1676
     32 C24         5.2137    4.9995    0.3678 C.2       1 <0>        -0.2416
     33 C25         5.0396    3.6601    0.2965 C.2       1 <0>        -0.0132
     34 O6          3.7318    3.3958    0.1824 O.3       1 <0>        -0.0672
     35 C26         6.1400    2.6312    0.3386 C.3       1 <0>        -0.0745
     36 H2         -2.8689   10.5125    2.5146 H         1 <0>         0.0516
     37 H3         -1.8965   10.2238    1.0321 H         1 <0>         0.0543
     38 H4         -1.3905    9.4954    2.5942 H         1 <0>         0.0559
     39 H5         -3.4472    8.0928    2.6065 H         1 <0>         0.0617
     40 H6         -3.9533    8.8211    1.0444 H         1 <0>         0.0601
     41 H7         -1.9532    7.9279   -0.0688 H         1 <0>         0.0686
     42 H8         -1.3250    7.3021    1.4934 H         1 <0>         0.0744
     43 H9         -3.3898    5.8652    1.6913 H         1 <0>         0.0857
     44 H10        -3.8918    6.4235    0.0594 H         1 <0>         0.0783
     45 H11        -3.1239    6.6729   -2.1450 H         1 <0>         0.1187
     46 H12        -2.4804    6.1241   -4.4498 H         1 <0>         0.1235
     47 H13        -0.9551    4.2447   -4.8980 H         1 <0>         0.1234
     48 H14        -0.0698    2.9069   -3.0264 H         1 <0>         0.1231
     49 H15        -3.0507    2.1529   -1.0104 H         1 <0>         0.0862
     50 H16        -2.4390    0.4880   -0.7269 H         1 <0>         0.0919
     51 H17        -5.3794    1.6688    1.1454 H         1 <0>         0.0736
     52 H18        -4.7974    0.6384   -0.2059 H         1 <0>         0.0784
     53 H19        -5.6666   -0.3901    2.2677 H         1 <0>         0.0761
     54 H20        -4.5174   -1.2414    1.1809 H         1 <0>         0.0764
     55 H21        -3.8904    0.6304    3.5636 H         1 <0>         0.0560
     56 H22        -3.1736   -0.9779    3.2086 H         1 <0>         0.0906
     57 H23         3.7173    6.6432    0.3094 H         1 <0>         0.1440
     58 H24         6.1554    5.5192    0.4645 H         1 <0>         0.1392
     59 H25         5.7037    1.6244    0.2610 H         1 <0>         0.0803
     60 H26         6.6895    2.7206    1.2873 H         1 <0>         0.0781
     61 H27         6.8299    2.7976   -0.5018 H         1 <0>         0.0773
@<TRIPOS>BOND
     1    1    2 1
     2    1   36 1
     3    1   37 1
     4    1   38 1
     5    2    3 1
     6    2   39 1
     7    2   40 1
     8    3    4 1
     9    3   41 1
    10    3   42 1
    11    4    5 1
    12    4   43 1
    13    4   44 1
    14    5   13 am
    15    5    6 1
    16    6   11 ar
    17    6    7 ar
    18    7    8 ar
    19    7   45 1
    20    8    9 ar
    21    8   46 1
    22    9   10 ar
    23    9   47 1
    24   10   11 ar
    25   10   48 1
    26   11   12 1
    27   12   19 1
    28   12   13 1
    29   12   15 1
    30   13   14 2
    31   15   16 2
    32   15   28 1
    33   16   17 1
    34   16   27 1
    35   17   18 2
    36   17   19 am
    37   19   20 1
    38   20   21 1
    39   20   49 1
    40   20   50 1
    41   21   22 1
    42   21   26 1
    43   21   23 1
    44   23   24 1
    45   23   51 1
    46   23   52 1
    47   24   25 1
    48   24   53 1
    49   24   54 1
    50   25   26 1
    51   25   55 1
    52   25   56 1
    53   28   29 2
    54   28   30 1
    55   30   34 1
    56   30   31 2
    57   31   32 1
    58   31   57 1
    59   32   33 2
    60   32   58 1
    61   33   34 1
    62   33   35 1
    63   35   59 1
    64   35   60 1
    65   35   61 1
@<TRIPOS>MOLECULE
ZINC39692902
   49    53     0     0     0
SMALL
USER_CHARGES

@<TRIPOS>ATOM
      1 C1         -0.0184    1.5028    0.0103 C.3       1 <0>        -0.1335
      2 C2          0.0021   -0.0041    0.0020 C.2       1 <0>         0.1245
      3 C3          0.0061   -0.6913   -1.1499 C.2       1 <0>        -0.3448
      4 C4          0.0265   -2.1674   -1.0686 C.2       1 <0>         0.2903
      5 N1          0.0301   -2.8951   -2.1601 N.2       1 <0>        -0.5569
      6 C5          0.0156   -2.3368   -3.3603 C.2       1 <0>         0.4612
      7 N2         -0.0025   -1.0400   -3.5541 N.2       1 <0>        -0.6209
      8 C6         -0.0083   -0.1578   -2.5494 C.2       1 <0>         0.5638
      9 O1         -0.0256    1.0422   -2.7654 O.2       1 <0>        -0.4702
     10 C7          0.0209   -3.2390   -4.5674 C.3       1 <0>        -0.0601
     11 S1         -0.0013   -2.2313   -6.0756 S.3       1 <0>         0.1020
     12 C8          0.0072   -3.4159   -7.3800 C.2       1 <0>         0.1551
     13 N3          0.0198   -4.7235   -7.2460 N.2       1 <0>        -0.2915
     14 N4          0.0228   -5.2865   -8.4010 N.2       1 <0>        -0.2630
     15 C9          0.0122   -4.3748   -9.3456 C.2       1 <0>         0.2248
     16 N5         -0.0042   -3.1466   -8.7212 N.pl3     1 <0>        -0.4144
     17 C10        -0.0246   -1.8852   -9.3324 C.ar      1 <0>         0.1043
     18 C11        -1.1259   -1.4929  -10.0812 C.ar      1 <0>        -0.0968
     19 C12        -1.1431   -0.2495  -10.6822 C.ar      1 <0>        -0.1070
     20 C13        -0.0650    0.6044  -10.5387 C.ar      1 <0>        -0.1007
     21 C14         1.0335    0.2163   -9.7938 C.ar      1 <0>        -0.1024
     22 C15         1.0539   -1.0235   -9.1853 C.ar      1 <0>        -0.0968
     23 C16         0.0122   -4.6196  -10.8033 C.ar      1 <0>        -0.0159
     24 C17         0.3190   -3.5843  -11.6879 C.ar      1 <0>        -0.1049
     25 C18         0.3177   -3.8197  -13.0473 C.ar      1 <0>        -0.1173
     26 C19         0.0128   -5.0783  -13.5343 C.ar      1 <0>        -0.1063
     27 C20        -0.2927   -6.1087  -12.6629 C.ar      1 <0>        -0.1193
     28 C21        -0.2890   -5.8885  -11.3010 C.ar      1 <0>        -0.0750
     29 S2          0.0403   -2.5232    0.6703 S.3       1 <0>         0.0464
     30 C22         0.0250   -0.7926    1.2917 C.3       1 <0>        -0.1457
     31 H1         -0.8698   -0.5994    1.8833 H         1 <0>         0.1594
     32 C23         1.2698   -0.4918    2.0860 C.2       1 <0>         0.5292
     33 O2          1.1930   -0.2873    3.2855 O.co2     1 <0>        -0.6485
     34 O3          2.3538   -0.4529    1.5292 O.co2     1 <0>        -0.6478
     35 H2          1.0042    1.8801    0.0026 H         1 <0>         0.1072
     36 H3         -0.5455    1.8639   -0.8728 H         1 <0>         0.1014
     37 H4         -0.5286    1.8543    0.9071 H         1 <0>         0.0836
     38 H5          0.9194   -3.8560   -4.5560 H         1 <0>         0.1337
     39 H6         -0.8604   -3.8800   -4.5458 H         1 <0>         0.1332
     40 H7         -1.9681   -2.1596  -10.1940 H         1 <0>         0.1298
     41 H8         -1.9994    0.0561  -11.2652 H         1 <0>         0.1354
     42 H9         -0.0807    1.5762  -11.0096 H         1 <0>         0.1333
     43 H10         1.8744    0.8850   -9.6841 H         1 <0>         0.1376
     44 H11         1.9099   -1.3240   -8.5994 H         1 <0>         0.1348
     45 H12         0.5566   -2.6012  -11.3091 H         1 <0>         0.1284
     46 H13         0.5550   -3.0196  -13.7328 H         1 <0>         0.1273
     47 H14         0.0128   -5.2572  -14.5993 H         1 <0>         0.1261
     48 H15        -0.5303   -7.0888  -13.0495 H         1 <0>         0.1303
     49 H16        -0.5232   -6.6947  -10.6217 H         1 <0>         0.1367
@<TRIPOS>BOND
     1    1    2 1
     2    1   35 1
     3    1   36 1
     4    1   37 1
     5    2   30 1
     6    2    3 2
     7    3    8 1
     8    3    4 1
     9    4    5 2
    10    4   29 1
    11    5    6 1
    12    6    7 2
    13    6   10 1
    14    7    8 1
    15    8    9 2
    16   10   11 1
    17   10   38 1
    18   10   39 1
    19   11   12 1
    20   12   16 1
    21   12   13 2
    22   13   14 1
    23   14   15 2
    24   15   16 1
    25   15   23 1
    26   16   17 1
    27   17   22 ar
    28   17   18 ar
    29   18   19 ar
    30   18   40 1
    31   19   20 ar
    32   19   41 1
    33   20   21 ar
    34   20   42 1
    35   21   22 ar
    36   21   43 1
    37   22   44 1
    38   23   28 ar
    39   23   24 ar
    40   24   25 ar
    41   24   45 1
    42   25   26 ar
    43   25   46 1
    44   26   27 ar
    45   26   47 1
    46   27   28 ar
    47   27   48 1
    48   28   49 1
    49   29   30 1
    50   30   31 1
    51   30   32 1
    52   32   33 2
    53   32   34 1
@<TRIPOS>MOLECULE
ZINC05940160
   59    62     0     0     0
SMALL
USER_CHARGES

@<TRIPOS>ATOM
      1 C1         -0.0188    1.5322    0.0105 C.3       1 <0>        -0.1304
      2 C2          0.0021   -0.0041    0.0020 C.3       1 <0>        -0.0665
      3 C3         -1.4259   -0.6147   -0.0285 C.3       1 <0>        -0.1196
      4 C4         -1.0843   -2.0479   -0.5072 C.3       1 <0>         0.1563
      5 H1         -1.9617   -2.5589   -0.9216 H         1 <0>         0.0956
      6 C5         -0.4955   -2.7913    0.6911 C.3       1 <0>        -0.1248
      7 C6          0.7242   -2.1067    1.2834 C.3       1 <0>        -0.0505
      8 C7          0.7260   -0.5910    1.2121 C.3       1 <0>        -0.0920
      9 C8          1.9989   -2.6692    0.6394 C.3       1 <0>        -0.1504
     10 C9          0.7813   -2.4942    2.7820 C.3       1 <0>        -0.1454
     11 N1         -0.0280   -1.8732   -1.5242 N.pl3     1 <0>        -1.0035
     12 C10         0.6250   -0.5756   -1.2918 C.3       1 <0>         0.1274
     13 S1          0.3544   -2.9498   -2.7231 S.o2      1 <0>         2.7041
     14 O1          1.7028   -2.6893   -3.0881 O.2       1 <0>        -0.9595
     15 O2         -0.0808   -4.2267   -2.2763 O.2       1 <0>        -0.9614
     16 C11        -0.6341   -2.5426   -4.1238 C.ar      1 <0>        -0.6301
     17 C12        -1.8820   -3.1183   -4.2794 C.ar      1 <0>        -0.1278
     18 C13        -2.6607   -2.8019   -5.3772 C.ar      1 <0>        -0.0817
     19 C14        -2.1945   -1.9089   -6.3223 C.ar      1 <0>        -0.2138
     20 C15        -0.9420   -1.3286   -6.1688 C.ar      1 <0>         0.2608
     21 C16        -0.1643   -1.6448   -5.0618 C.ar      1 <0>        -0.0758
     22 N2         -0.4676   -0.4252   -7.1226 N.2       1 <0>        -1.0849
     23 S2         -1.3987   -0.0449   -8.4381 S.o2      1 <0>         2.5996
     24 O3         -1.5085   -1.2301   -9.2142 O.2       1 <0>        -1.0167
     25 O4         -2.5353    0.6502   -7.9440 O.2       1 <0>        -1.0192
     26 C17        -0.4849    1.1087   -9.4071 C.ar      1 <0>        -0.6162
     27 C18        -0.6158    2.4650   -9.1729 C.ar      1 <0>         0.0252
     28 C19         0.1010    3.3699   -9.9330 C.ar      1 <0>        -0.1403
     29 C20         0.9491    2.9187  -10.9273 C.ar      1 <0>        -0.0212
     30 C21         1.0806    1.5629  -11.1608 C.ar      1 <0>        -0.0746
     31 C22         0.3669    0.6575  -10.3976 C.ar      1 <0>         0.0422
     32 N3          1.9883    1.0799  -12.2257 N.pl3     1 <0>         0.0380
     33 O5          2.6146    1.8715  -12.8911 O.2       1 <0>        -0.1652
     34 O6          2.1033   -0.1061  -12.4300 O.3       1 <0>        -0.1542
     35 H2          1.0038    1.9095    0.0027 H         1 <0>         0.0586
     36 H3         -0.5459    1.8933   -0.8726 H         1 <0>         0.0632
     37 H4         -0.5289    1.8837    0.9073 H         1 <0>         0.0590
     38 H5         -1.8743   -0.6226    0.9650 H         1 <0>         0.0818
     39 H6         -2.0640   -0.0968   -0.7434 H         1 <0>         0.0777
     40 H7         -1.2656   -2.8883    1.4683 H         1 <0>         0.0704
     41 H8         -0.2201   -3.8093    0.3814 H         1 <0>         0.0730
     42 H9          1.7690   -0.2359    1.2090 H         1 <0>         0.0615
     43 H10         0.2661   -0.1913    2.1299 H         1 <0>         0.0606
     44 H11         1.9718   -2.4912   -0.4357 H         1 <0>         0.0577
     45 H12         2.8709   -2.1749    1.0676 H         1 <0>         0.0539
     46 H13         2.0592   -3.7409    0.8288 H         1 <0>         0.0541
     47 H14         0.8658   -3.5770    2.8743 H         1 <0>         0.0534
     48 H15         1.6464   -2.0214    3.2469 H         1 <0>         0.0517
     49 H16        -0.1281   -2.1570    3.2794 H         1 <0>         0.0525
     50 H17         0.4100    0.0943   -2.1295 H         1 <0>         0.0659
     51 H18         1.6986   -0.6917   -1.1874 H         1 <0>         0.0769
     52 H19        -2.2489   -3.8168   -3.5420 H         1 <0>         0.1209
     53 H20        -3.6344   -3.2537   -5.4961 H         1 <0>         0.1147
     54 H21        -2.8031   -1.6624   -7.1797 H         1 <0>         0.1046
     55 H22         0.8084   -1.1923   -4.9374 H         1 <0>         0.1306
     56 H23        -1.2783    2.8174   -8.3962 H         1 <0>         0.1572
     57 H24        -0.0018    4.4294   -9.7504 H         1 <0>         0.1534
     58 H25         1.5087    3.6259  -11.5217 H         1 <0>         0.1562
     59 H26         0.4725   -0.4021  -10.5777 H         1 <0>         0.1667
@<TRIPOS>BOND
     1    1    2 1
     2    1   35 1
     3    1   36 1
     4    1   37 1
     5    2    8 1
     6    2   12 1
     7    2    3 1
     8    3    4 1
     9    3   38 1
    10    3   39 1
    11    4    5 1
    12    4    6 1
    13    4   11 1
    14    6    7 1
    15    6   40 1
    16    6   41 1
    17    7    8 1
    18    7    9 1
    19    7   10 1
    20    8   42 1
    21    8   43 1
    22    9   44 1
    23    9   45 1
    24    9   46 1
    25   10   47 1
    26   10   48 1
    27   10   49 1
    28   11   12 1
    29   11   13 1
    30   12   50 1
    31   12   51 1
    32   13   14 2
    33   13   15 2
    34   13   16 1
    35   16   21 ar
    36   16   17 ar
    37   17   18 ar
    38   17   52 1
    39   18   19 ar
    40   18   53 1
    41   19   20 ar
    42   19   54 1
    43   20   21 ar
    44   20   22 1
    45   21   55 1
    46   22   23 1
    47   23   24 2
    48   23   25 2
    49   23   26 1
    50   26   31 ar
    51   26   27 ar
    52   27   28 ar
    53   27   56 1
    54   28   29 ar
    55   28   57 1
    56   29   30 ar
    57   29   58 1
    58   30   31 ar
    59   30   32 1
    60   31   59 1
    61   32   33 2
    62   32   34 1
@<TRIPOS>MOLECULE
ZINC39749477
   57    61     0     0     0
SMALL
USER_CHARGES

@<TRIPOS>ATOM
      1 C1         -0.0187    1.5258    0.0104 C.3       1 <0>        -0.1376
      2 C2          0.0021   -0.0041    0.0020 C.3       1 <0>        -0.0574
      3 C3         -1.4320   -0.5377    0.0359 C.3       1 <0>        -0.0742
      4 C4         -1.4072   -2.0449    0.1094 C.2       1 <0>         0.3053
      5 C5         -0.3220   -2.7031    0.6981 C.2       1 <0>        -0.3821
      6 C6         -0.2832   -4.2169    0.7165 C.3       1 <0>         0.0636
      7 H1          0.2762   -4.5592    1.5871 H         1 <0>         0.1052
      8 C7         -1.7159   -4.7344    0.7905 C.3       1 <0>        -0.2171
      9 H2         -2.1141   -4.4950    1.7765 H         1 <0>         0.1199
     10 C8         -2.5579   -4.0326   -0.2394 C.2       1 <0>         0.4933
     11 N1         -3.3984   -4.7103   -0.9934 N.2       1 <0>        -0.6127
     12 C9         -3.4655   -6.0410   -0.9596 C.2       1 <0>         0.4323
     13 N2         -2.6533   -6.7748   -0.2082 N.2       1 <0>        -0.6833
     14 C10        -1.7839   -6.2175    0.6055 C.2       1 <0>         0.5240
     15 O1         -1.0237   -6.9333    1.2289 O.2       1 <0>        -0.5028
     16 S1         -4.6763   -6.8556   -1.9471 S.3       1 <0>         0.0190
     17 C11        -4.4138   -8.6165   -1.5994 C.3       1 <0>        -0.0846
     18 C12        -5.3985   -9.4373   -2.3916 C.ar      1 <0>        -0.0154
     19 C13        -6.6329   -9.7465   -1.8517 C.ar      1 <0>        -0.1007
     20 C14        -7.5362  -10.4993   -2.5785 C.ar      1 <0>        -0.0530
     21 C15        -7.2053  -10.9426   -3.8453 C.ar      1 <0>        -0.0503
     22 C16        -5.9712  -10.6326   -4.3856 C.ar      1 <0>        -0.0524
     23 C17        -5.0696   -9.8761   -3.6605 C.ar      1 <0>        -0.0997
     24 N3         -8.1721  -11.7496   -4.6231 N.pl3     1 <0>         0.0353
     25 O2         -9.2513  -12.0210   -4.1504 O.2       1 <0>        -0.1614
     26 O3         -7.8827  -12.1372   -5.7311 O.3       1 <0>        -0.1607
     27 N4         -2.4021   -2.7261   -0.4271 N.2       1 <0>        -0.6036
     28 C18         0.3756   -4.7230   -0.5409 C.ar      1 <0>        -0.0159
     29 C19        -0.1522   -4.4251   -1.7880 C.ar      1 <0>        -0.1734
     30 C20         0.4793   -4.9067   -2.9190 C.ar      1 <0>         0.0903
     31 N5          1.5701   -5.6413   -2.8214 N.ar      1 <0>        -0.4921
     32 C21         2.0998   -5.9443   -1.6524 C.ar      1 <0>         0.0891
     33 C22         1.5270   -5.4928   -0.4784 C.ar      1 <0>        -0.1461
     34 C23         0.7070   -2.0195    1.2499 C.2       1 <0>         0.3520
     35 O4          1.7200   -2.6992    1.8175 O.3       1 <0>        -0.6007
     36 C24         0.7425   -0.5154    1.2421 C.3       1 <0>        -0.1254
     37 C25         0.7096   -0.5013   -1.2602 C.3       1 <0>        -0.1469
     38 H3          1.0039    1.9031    0.0027 H         1 <0>         0.0580
     39 H4         -0.5459    1.8868   -0.8726 H         1 <0>         0.0591
     40 H5         -0.5289    1.8773    0.9072 H         1 <0>         0.0569
     41 H6         -1.9471   -0.1398    0.9103 H         1 <0>         0.0918
     42 H7         -1.9568   -0.2267   -0.8674 H         1 <0>         0.0940
     43 H8         -3.3985   -8.8952   -1.8815 H         1 <0>         0.1154
     44 H9         -4.5591   -8.8023   -0.5352 H         1 <0>         0.1143
     45 H10        -6.8915   -9.4002   -0.8620 H         1 <0>         0.1522
     46 H11        -8.5004  -10.7415   -2.1563 H         1 <0>         0.1554
     47 H12        -5.7125  -10.9793   -5.3752 H         1 <0>         0.1557
     48 H13        -4.1069   -9.6308   -4.0841 H         1 <0>         0.1528
     49 H14        -1.0457   -3.8245   -1.8743 H         1 <0>         0.1359
     50 H15         0.0745   -4.6791   -3.8941 H         1 <0>         0.1480
     51 H16         2.9938   -6.5488   -1.6121 H         1 <0>         0.1501
     52 H17         1.9683   -5.7401    0.4757 H         1 <0>         0.1318
     53 H18         1.7777   -0.1752    1.2148 H         1 <0>         0.0849
     54 H19         0.2559   -0.1346    2.1401 H         1 <0>         0.0896
     55 H20         1.7326   -0.1253   -1.2753 H         1 <0>         0.0544
     56 H21         0.7230   -1.5912   -1.2637 H         1 <0>         0.0632
     57 H22         0.1772   -0.1416   -2.1407 H         1 <0>         0.0568
@<TRIPOS>BOND
     1    1    2 1
     2    1   38 1
     3    1   39 1
     4    1   40 1
     5    2   36 1
     6    2    3 1
     7    2   37 1
     8    3    4 1
     9    3   41 1
    10    3   42 1
    11    4   27 2
    12    4    5 1
    13    5    6 1
    14    5   34 2
    15    6    7 1
    16    6    8 1
    17    6   28 1
    18    8    9 1
    19    8   14 1
    20    8   10 1
    21   10   11 2
    22   10   27 1
    23   11   12 1
    24   12   13 2
    25   12   16 1
    26   13   14 1
    27   14   15 2
    28   16   17 1
    29   17   18 1
    30   17   43 1
    31   17   44 1
    32   18   23 ar
    33   18   19 ar
    34   19   20 ar
    35   19   45 1
    36   20   21 ar
    37   20   46 1
    38   21   22 ar
    39   21   24 1
    40   22   23 ar
    41   22   47 1
    42   23   48 1
    43   24   25 2
    44   24   26 1
    45   28   33 ar
    46   28   29 ar
    47   29   30 ar
    48   29   49 1
    49   30   31 ar
    50   30   50 1
    51   31   32 ar
    52   32   33 ar
    53   32   51 1
    54   33   52 1
    55   34   35 1
    56   34   36 1
    57   36   53 1
    58   36   54 1
    59   37   55 1
    60   37   56 1
    61   37   57 1
@<TRIPOS>MOLECULE
ZINC13187733
   56    60     0     0     0
SMALL
USER_CHARGES
3-[2-[(3R,3aR,7E)-3-(2-furyl)-7-(2-furylmethylene)-3a,4,5,6-tetrahydro-3H-indazol-2-yl]-2-oxo-ethoxy]-4-nitro-benzoic acid
@<TRIPOS>ATOM
      1 C1         -1.1204    1.8466    0.0168 C.2       1 <0>        -0.2125
      2 C2         -0.6930    3.1858    0.0258 C.2       1 <0>        -0.1714
      3 C3          0.6742    3.1620    0.0126 C.2       1 <0>         0.0023
      4 O1          1.0685    1.8724    0.0019 O.3       1 <0>        -0.1656
      5 C4         -0.0126    1.0758    0.0080 C.2       1 <0>        -0.0363
      6 C5          1.5540    4.3295    0.0112 C.2       1 <0>        -0.0253
      7 C6          2.8978    4.1646   -0.0022 C.2       1 <0>        -0.0599
      8 C7          3.4716    2.7802   -0.0156 C.3       1 <0>        -0.0729
      9 C8          4.9759    2.7311   -0.1900 C.3       1 <0>        -0.1172
     10 C9          5.6990    3.9194    0.4411 C.3       1 <0>        -0.1023
     11 C10         5.2361    5.1917   -0.2706 C.3       1 <0>        -0.1013
     12 H1          5.4621    5.1651   -1.3366 H         1 <0>         0.1241
     13 C11         3.7376    5.2990   -0.0093 C.2       1 <0>         0.1469
     14 N1          3.4594    6.5389    0.2107 N.2       1 <0>        -0.2277
     15 N2          4.5924    7.3487    0.3534 N.am      1 <0>        -0.4692
     16 C12         5.7775    6.4596    0.4115 C.3       1 <0>         0.1979
     17 H2          6.6052    6.8856   -0.1557 H         1 <0>         0.1345
     18 C13         6.1892    6.1749    1.8329 C.2       1 <0>        -0.0170
     19 C14         7.4466    5.9593    2.2595 C.2       1 <0>        -0.1883
     20 C15         7.3736    5.7374    3.6539 C.2       1 <0>        -0.2124
     21 C16         6.0751    5.8225    3.9946 C.2       1 <0>        -0.0343
     22 O2          5.3624    6.0876    2.8876 O.3       1 <0>        -0.1643
     23 C17         4.6027    8.6940    0.4351 C.2       1 <0>         0.5618
     24 O3          5.6545    9.2862    0.5584 O.2       1 <0>        -0.4783
     25 C18         3.3080    9.4626    0.3732 C.3       1 <0>         0.0475
     26 O4          3.5790   10.8616    0.4798 O.3       1 <0>        -0.2667
     27 C19         2.5113   11.7017    0.4412 C.ar      1 <0>         0.1791
     28 C20         1.2321   11.1892    0.3036 C.ar      1 <0>        -0.1823
     29 C21         0.1388   12.0553    0.2648 C.ar      1 <0>        -0.0188
     30 C22         0.3423   13.4333    0.3651 C.ar      1 <0>        -0.1111
     31 C23         1.6209   13.9327    0.5018 C.ar      1 <0>        -0.0395
     32 C24         2.7030   13.0726    0.5453 C.ar      1 <0>        -0.0823
     33 N3          4.0712   13.6161    0.6984 N.pl3     1 <0>         0.0398
     34 O5          4.2421   14.8186    0.7900 O.2       1 <0>        -0.1962
     35 O6          5.0262   12.8610    0.7327 O.3       1 <0>        -0.1386
     36 C25        -1.2291   11.5165    0.1188 C.2       1 <0>         0.4857
     37 O7         -1.4036   10.3175    0.0322 O.co2     1 <0>        -0.6135
     38 H3         -2.1432    1.4996    0.0186 H         1 <0>         0.1507
     39 H4         -1.3224    4.0634    0.0366 H         1 <0>         0.1565
     40 H5          0.0021   -0.0041    0.0020 H         1 <0>         0.2034
     41 H6          1.1320    5.3237    0.0209 H         1 <0>         0.1599
     42 H7          3.2157    2.2902    0.9238 H         1 <0>         0.0817
     43 H8          3.0122    2.2229   -0.8320 H         1 <0>         0.0884
     44 H9          5.3504    1.8133    0.2633 H         1 <0>         0.0730
     45 H10         5.2036    2.7118   -1.2558 H         1 <0>         0.0658
     46 H11         5.4517    3.9799    1.5009 H         1 <0>         0.0745
     47 H12         6.7758    3.8012    0.3201 H         1 <0>         0.0781
     48 H13         8.3406    5.9583    1.6536 H         1 <0>         0.1501
     49 H14         8.2011    5.5341    4.3175 H         1 <0>         0.1499
     50 H15         5.6738    5.6988    4.9896 H         1 <0>         0.2024
     51 H16         2.8103    9.2602   -0.5752 H         1 <0>         0.1056
     52 H17         2.6625    9.1539    1.1954 H         1 <0>         0.1078
     53 H18         1.0813   10.1225    0.2269 H         1 <0>         0.1570
     54 H19        -0.5009   14.1075    0.3359 H         1 <0>         0.1579
     55 H20         1.7771   14.9985    0.5792 H         1 <0>         0.1561
     56 O8         -2.2829   12.3549    0.0817 O.co2     1 <0>        -0.7328
@<TRIPOS>BOND
     1    1    5 2
     2    1    2 1
     3    1   38 1
     4    2    3 2
     5    2   39 1
     6    3    4 1
     7    3    6 1
     8    4    5 1
     9    5   40 1
    10    6    7 2
    11    6   41 1
    12    7   13 1
    13    7    8 1
    14    8    9 1
    15    8   42 1
    16    8   43 1
    17    9   10 1
    18    9   44 1
    19    9   45 1
    20   10   11 1
    21   10   46 1
    22   10   47 1
    23   11   12 1
    24   11   16 1
    25   11   13 1
    26   13   14 2
    27   14   15 1
    28   15   16 1
    29   15   23 am
    30   16   17 1
    31   16   18 1
    32   18   22 1
    33   18   19 2
    34   19   20 1
    35   19   48 1
    36   20   21 2
    37   20   49 1
    38   21   22 1
    39   21   50 1
    40   23   24 2
    41   23   25 1
    42   25   26 1
    43   25   51 1
    44   25   52 1
    45   26   27 1
    46   27   32 ar
    47   27   28 ar
    48   28   29 ar
    49   28   53 1
    50   29   30 ar
    51   29   36 1
    52   30   31 ar
    53   30   54 1
    54   31   32 ar
    55   31   55 1
    56   32   33 1
    57   33   34 2
    58   33   35 1
    59   36   37 2
    60   36   56 1
@<TRIPOS>MOLECULE
ZINC03108836
   36    37     0     0     0
SMALL
USER_CHARGES

@<TRIPOS>ATOM
      1 C1         -0.0167    1.3781    0.0096 C.ar      1 <0>        -0.0745
      2 C2          1.1709    2.0855    0.0021 C.ar      1 <0>        -0.0177
      3 C3          2.3773    1.4107   -0.0130 C.ar      1 <0>        -0.6246
      4 C4          2.3961    0.0285   -0.0201 C.ar      1 <0>        -0.0157
      5 C5          1.2084   -0.6789   -0.0117 C.ar      1 <0>        -0.0740
      6 C6          0.0021   -0.0041    0.0020 C.ar      1 <0>         0.0057
      7 N1         -1.2696   -0.7615    0.0105 N.pl3     1 <0>         0.0216
      8 O1         -2.3247   -0.1714    0.0241 O.2       1 <0>        -0.1405
      9 O2         -1.2532   -1.9704    0.0039 O.3       1 <0>        -0.1403
     10 S1          3.8911    2.3124   -0.0238 S.o2      1 <0>         2.6317
     11 O3          4.8717    1.4529   -0.5884 O.2       1 <0>        -0.9072
     12 O4          3.5973    3.5927   -0.5658 O.2       1 <0>        -0.9123
     13 C7          4.3553    2.5712    1.6561 C.2       1 <0>        -0.8293
     14 C8          5.1219    1.8038    2.4694 C.2       1 <0>         0.2263
     15 N2          5.3128    2.2396    3.7008 N.2       1 <0>        -0.5355
     16 C9          4.7793    3.3693    4.1126 C.2       1 <0>         0.2913
     17 S2          3.9522    3.9201    2.7542 S.3       1 <0>         0.2882
     18 N3          4.8790    3.9661    5.3640 N.am      1 <0>        -0.5996
     19 C10         5.5984    3.3737    6.3377 C.2       1 <0>         0.4894
     20 O5          6.1587    2.3199    6.1220 O.2       1 <0>        -0.3878
     21 C11         5.7065    4.0207    7.6945 C.3       1 <0>         0.2569
     22 C12         6.9916    3.5539    8.3811 C.3       1 <0>         0.2406
     23 C13         7.1013    4.2107    9.7586 C.3       1 <0>         0.4334
     24 F1          5.9977    3.8473   10.5378 F         1 <0>        -0.1417
     25 F2          8.2764    3.7839   10.3865 F         1 <0>        -0.1414
     26 F3          7.1302    5.6016    9.6110 F         1 <0>        -0.1424
     27 F4          6.9627    2.1630    8.5287 F         1 <0>        -0.1178
     28 F5          8.0952    3.9173    7.6019 F         1 <0>        -0.1279
     29 F6          5.7354    5.4116    7.5469 F         1 <0>        -0.1410
     30 F7          4.6029    3.6572    8.4737 F         1 <0>        -0.1298
     31 H1         -0.9591    1.9053    0.0259 H         1 <0>         0.1676
     32 H2          1.1563    3.1654    0.0076 H         1 <0>         0.1685
     33 H3          3.3385   -0.4987   -0.0326 H         1 <0>         0.1698
     34 H4          1.2231   -1.7588   -0.0179 H         1 <0>         0.1678
     35 H5          5.5568    0.8771    2.1253 H         1 <0>         0.2000
     36 H6          4.4308    4.8089    5.5366 H         1 <0>         0.4422
@<TRIPOS>BOND
     1    1    6 ar
     2    1    2 ar
     3    1   31 1
     4    2    3 ar
     5    2   32 1
     6    3    4 ar
     7    3   10 1
     8    4    5 ar
     9    4   33 1
    10    5    6 ar
    11    5   34 1
    12    6    7 1
    13    7    8 2
    14    7    9 1
    15   10   11 2
    16   10   12 2
    17   10   13 1
    18   13   17 1
    19   13   14 2
    20   14   15 1
    21   14   35 1
    22   15   16 2
    23   16   17 1
    24   16   18 1
    25   18   19 am
    26   18   36 1
    27   19   20 2
    28   19   21 1
    29   21   22 1
    30   21   29 1
    31   21   30 1
    32   22   23 1
    33   22   27 1
    34   22   28 1
    35   23   24 1
    36   23   25 1
    37   23   26 1
@<TRIPOS>MOLECULE
ZINC35548097
   59    62     0     0     0
SMALL
USER_CHARGES

@<TRIPOS>ATOM
      1 C1         -0.0187    1.5258    0.0104 C.3       1 <0>        -0.1443
      2 C2          0.0021   -0.0041    0.0020 C.3       1 <0>        -0.1503
      3 C3         -1.4333   -0.5336    0.0129 C.3       1 <0>         0.1005
      4 H1         -1.9666   -0.1088    0.8633 H         1 <0>         0.1375
      5 C4         -1.4082   -2.0259    0.1412 C.2       1 <0>         0.4857
      6 O1         -1.7003   -2.4222    1.2496 O.2       1 <0>        -0.5787
      7 N1         -1.1426   -2.9596   -0.6785 N.am      1 <0>        -0.5527
      8 C5         -0.9936   -2.9959   -2.0948 C.3       1 <0>         0.1511
      9 C6         -1.2311   -1.7448   -2.8828 C.ar      1 <0>        -0.0820
     10 C7         -0.9830   -1.9089   -4.2552 C.ar      1 <0>        -0.1804
     11 C8         -1.0935   -0.8539   -5.1376 C.ar      1 <0>         0.2741
     12 C9         -1.4496    0.3958   -4.6455 C.ar      1 <0>        -0.2182
     13 C10        -1.7095    0.5413   -3.3084 C.ar      1 <0>        -0.0822
     14 C11        -1.6309   -0.5498   -2.4087 C.ar      1 <0>         0.0202
     15 O2         -2.0811   -0.1487   -1.1829 O.3       1 <0>        -0.3096
     16 N2         -0.8509   -1.0390   -6.5033 N.2       1 <0>        -1.0807
     17 S1         -0.9878    0.2376   -7.5491 S.o2      1 <0>         2.5882
     18 O3         -2.3600    0.6066   -7.5622 O.2       1 <0>        -1.0234
     19 O4          0.0441    1.1535   -7.2093 O.2       1 <0>        -1.0185
     20 C12        -0.6136   -0.3671   -9.1612 C.ar      1 <0>        -0.5785
     21 C13        -1.5865   -0.3760  -10.1395 C.ar      1 <0>        -0.0329
     22 C14        -1.2944   -0.8505  -11.4057 C.ar      1 <0>        -0.1192
     23 C15        -0.0262   -1.3195  -11.7003 C.ar      1 <0>        -0.0844
     24 C16         0.9558   -1.3168  -10.7318 C.ar      1 <0>        -0.0994
     25 C17         0.6697   -0.8331   -9.4533 C.ar      1 <0>         0.0787
     26 C18         1.6860   -0.8213   -8.4446 C.1       1 <0>         0.2314
     27 N3          2.4923   -0.8120   -7.6444 N.1       1 <0>        -0.3699
     28 C19        -0.9504   -4.2627   -0.0373 C.3       1 <0>         0.1401
     29 C20        -2.2719   -4.9825    0.0440 C.ar      1 <0>        -0.1384
     30 C21        -3.0844   -4.8109    1.1495 C.ar      1 <0>        -0.0436
     31 C22        -4.2961   -5.4699    1.2266 C.ar      1 <0>        -0.1606
     32 C23        -4.6977   -6.3040    0.1934 C.ar      1 <0>         0.1274
     33 C24        -3.8809   -6.4741   -0.9150 C.ar      1 <0>        -0.2136
     34 C25        -2.6725   -5.8088   -0.9897 C.ar      1 <0>        -0.0671
     35 O5         -5.8890   -6.9537    0.2670 O.3       1 <0>        -0.3204
     36 C26        -6.2377   -7.7961   -0.8333 C.3       1 <0>         0.0276
     37 H2          1.0039    1.9031    0.0027 H         1 <0>         0.0555
     38 H3         -0.5459    1.8868   -0.8726 H         1 <0>         0.0657
     39 H4         -0.5289    1.8773    0.9072 H         1 <0>         0.0542
     40 H5          0.5123   -0.3556   -0.8948 H         1 <0>         0.0737
     41 H6          0.5293   -0.3651    0.8851 H         1 <0>         0.0721
     42 H7          0.0211   -3.3313   -2.3095 H         1 <0>         0.0760
     43 H8         -1.6726   -3.7582   -2.4768 H         1 <0>         0.0800
     44 H9         -0.6993   -2.8820   -4.6280 H         1 <0>         0.1191
     45 H10        -1.5210    1.2438   -5.3105 H         1 <0>         0.1053
     46 H11        -1.9814    1.5154   -2.9295 H         1 <0>         0.1142
     47 H12        -2.5784   -0.0120   -9.9161 H         1 <0>         0.1482
     48 H13        -2.0597   -0.8552  -12.1678 H         1 <0>         0.1347
     49 H14         0.1950   -1.6889  -12.6908 H         1 <0>         0.1356
     50 H15         1.9450   -1.6835  -10.9629 H         1 <0>         0.1369
     51 H16        -0.2489   -4.8562   -0.6236 H         1 <0>         0.0833
     52 H17        -0.5530   -4.1182    0.9674 H         1 <0>         0.1015
     53 H18        -2.7713   -4.1614    1.9536 H         1 <0>         0.1447
     54 H19        -4.9301   -5.3361    2.0907 H         1 <0>         0.1274
     55 H20        -4.1913   -7.1229   -1.7207 H         1 <0>         0.1263
     56 H21        -2.0382   -5.9375   -1.8543 H         1 <0>         0.1242
     57 H22        -7.2097   -8.2531   -0.6474 H         1 <0>         0.0976
     58 H23        -6.2844   -7.2015   -1.7456 H         1 <0>         0.0560
     59 H24        -5.4851   -8.5764   -0.9463 H         1 <0>         0.0542
@<TRIPOS>BOND
     1    1    2 1
     2    1   37 1
     3    1   38 1
     4    1   39 1
     5    2    3 1
     6    2   40 1
     7    2   41 1
     8    3    4 1
     9    3   15 1
    10    3    5 1
    11    5    6 2
    12    5    7 am
    13    7    8 1
    14    7   28 1
    15    8    9 1
    16    8   42 1
    17    8   43 1
    18    9   14 ar
    19    9   10 ar
    20   10   11 ar
    21   10   44 1
    22   11   12 ar
    23   11   16 1
    24   12   13 ar
    25   12   45 1
    26   13   14 ar
    27   13   46 1
    28   14   15 1
    29   16   17 1
    30   17   18 2
    31   17   19 2
    32   17   20 1
    33   20   25 ar
    34   20   21 ar
    35   21   22 ar
    36   21   47 1
    37   22   23 ar
    38   22   48 1
    39   23   24 ar
    40   23   49 1
    41   24   25 ar
    42   24   50 1
    43   25   26 1
    44   26   27 3
    45   28   29 1
    46   28   51 1
    47   28   52 1
    48   29   34 ar
    49   29   30 ar
    50   30   31 ar
    51   30   53 1
    52   31   32 ar
    53   31   54 1
    54   32   33 ar
    55   32   35 1
    56   33   34 ar
    57   33   55 1
    58   34   56 1
    59   35   36 1
    60   36   57 1
    61   36   58 1
    62   36   59 1
@<TRIPOS>MOLECULE
ZINC39691631
   47    51     0     0     0
SMALL
USER_CHARGES

@<TRIPOS>ATOM
      1 C1         -0.1384    1.4950   -0.5789 C.3       1 <0>        -0.1554
      2 C2         -0.1080   -0.0112   -0.5392 C.2       1 <0>         0.0649
      3 C3         -1.1935   -0.7201   -0.1699 C.2       1 <0>        -0.2338
      4 C4         -2.5187   -0.1768    0.2346 C.2       1 <0>         0.0150
      5 C5         -3.4960   -1.0389    0.5739 C.2       1 <0>        -0.2051
      6 C6         -3.2586   -2.4792    0.5454 C.2       1 <0>         0.5347
      7 O1         -4.1574   -3.2447    0.8570 O.2       1 <0>        -0.4801
      8 N1         -2.0689   -2.9705    0.1820 N.2       1 <0>        -0.5654
      9 C7         -1.0755   -2.1927   -0.1598 C.2       1 <0>         0.2936
     10 S1          0.5940   -2.5161   -0.6811 S.3       1 <0>         0.0254
     11 C8          1.1376   -0.7765   -0.9178 C.3       1 <0>        -0.1350
     12 H1          1.4103   -0.5889   -1.9563 H         1 <0>         0.1529
     13 C9          2.2793   -0.4403    0.0067 C.2       1 <0>         0.5234
     14 O2          2.5084   -1.1460    0.9742 O.co2     1 <0>        -0.6413
     15 O3          2.9737    0.5375   -0.2128 O.co2     1 <0>        -0.6560
     16 C10        -2.7621    1.3101    0.2645 C.3       1 <0>        -0.0908
     17 S2         -2.1373    1.9939    1.8243 S.3       1 <0>         0.0472
     18 C11        -2.4916    3.7159    1.7070 C.2       1 <0>         0.1709
     19 N2         -3.0820    4.3235    0.7025 N.2       1 <0>        -0.2802
     20 N3         -3.1835    5.5817    0.9425 N.2       1 <0>        -0.2452
     21 C12        -2.6633    5.8590    2.1183 C.2       1 <0>         0.2626
     22 N4         -2.2083    4.6692    2.6482 N.pl3     1 <0>        -0.4085
     23 C13        -1.5841    4.4771    3.8883 C.ar      1 <0>         0.0988
     24 C14        -2.2873    4.7042    5.0636 C.ar      1 <0>        -0.0911
     25 C15        -1.6696    4.5136    6.2842 C.ar      1 <0>        -0.1079
     26 C16        -0.3520    4.0973    6.3363 C.ar      1 <0>        -0.0979
     27 C17         0.3511    3.8707    5.1674 C.ar      1 <0>        -0.1007
     28 C18        -0.2630    4.0537    3.9439 C.ar      1 <0>        -0.0910
     29 C19        -2.5864    7.1847    2.7506 C.2       1 <0>         0.0421
     30 C20        -3.2861    8.2923    2.3750 C.2       1 <0>        -0.1368
     31 C21        -2.9047    9.3283    3.2493 C.2       1 <0>        -0.2139
     32 C22        -2.0019    8.8109    4.1061 C.2       1 <0>        -0.0153
     33 O4         -1.8161    7.5147    3.8061 O.3       1 <0>        -0.1636
     34 H2          0.8575    1.8725   -0.8107 H         1 <0>         0.0999
     35 H3         -0.8393    1.8241   -1.3460 H         1 <0>         0.0905
     36 H4         -0.4554    1.8777    0.3912 H         1 <0>         0.1020
     37 H5         -4.4637   -0.6617    0.8699 H         1 <0>         0.1477
     38 H6         -2.2441    1.7800   -0.5715 H         1 <0>         0.1278
     39 H7         -3.8316    1.5049    0.1850 H         1 <0>         0.1170
     40 H8         -3.3162    5.0300    5.0236 H         1 <0>         0.1258
     41 H9         -2.2162    4.6901    7.1988 H         1 <0>         0.1342
     42 H10         0.1290    3.9492    7.2919 H         1 <0>         0.1336
     43 H11         1.3802    3.5460    5.2112 H         1 <0>         0.1401
     44 H12         0.2852    3.8719    3.0313 H         1 <0>         0.1353
     45 H13        -3.9954    8.3622    1.5636 H         1 <0>         0.1616
     46 H14        -3.2668   10.3457    3.2355 H         1 <0>         0.1579
     47 H15        -1.5119    9.3485    4.9044 H         1 <0>         0.2102
@<TRIPOS>BOND
     1    1    2 1
     2    1   34 1
     3    1   35 1
     4    1   36 1
     5    2   11 1
     6    2    3 2
     7    3    9 1
     8    3    4 1
     9    4    5 2
    10    4   16 1
    11    5    6 1
    12    5   37 1
    13    6    7 2
    14    6    8 1
    15    8    9 2
    16    9   10 1
    17   10   11 1
    18   11   12 1
    19   11   13 1
    20   13   14 2
    21   13   15 1
    22   16   17 1
    23   16   38 1
    24   16   39 1
    25   17   18 1
    26   18   22 1
    27   18   19 2
    28   19   20 1
    29   20   21 2
    30   21   22 1
    31   21   29 1
    32   22   23 1
    33   23   28 ar
    34   23   24 ar
    35   24   25 ar
    36   24   40 1
    37   25   26 ar
    38   25   41 1
    39   26   27 ar
    40   26   42 1
    41   27   28 ar
    42   27   43 1
    43   28   44 1
    44   29   33 1
    45   29   30 2
    46   30   31 1
    47   30   45 1
    48   31   32 2
    49   31   46 1
    50   32   33 1
    51   32   47 1
@<TRIPOS>MOLECULE
ZINC16779769
   53    56     0     0     0
SMALL
USER_CHARGES

@<TRIPOS>ATOM
      1 C1         -0.0184    1.5028    0.0103 C.3       1 <0>        -0.1146
      2 C2          0.0021   -0.0041    0.0020 C.ar      1 <0>        -0.0844
      3 C3          0.0058   -0.6874   -1.2002 C.ar      1 <0>        -0.1094
      4 C4          0.0249   -2.0683   -1.2112 C.ar      1 <0>        -0.1078
      5 C5          0.0405   -2.7706   -0.0132 C.ar      1 <0>         0.1201
      6 C6          0.0368   -2.0814    1.1924 C.ar      1 <0>        -0.1048
      7 C7          0.0229   -0.7004    1.1966 C.ar      1 <0>        -0.1084
      8 N1          0.0595   -4.1708   -0.0209 N.pl3     1 <0>        -0.4163
      9 C8         -0.9380   -4.9529   -0.4955 C.2       1 <0>         0.1811
     10 C9         -0.5922   -6.2800   -0.3504 C.2       1 <0>        -0.2895
     11 C10         0.7461   -6.2936    0.2734 C.ar      1 <0>        -0.0066
     12 C11         1.1035   -4.9479    0.4503 C.ar      1 <0>        -0.0051
     13 C12         2.3334   -4.6360    1.0201 C.ar      1 <0>        -0.0607
     14 C13         3.1918   -5.6431    1.4026 C.ar      1 <0>        -0.2230
     15 C14         2.8399   -6.9788    1.2244 C.ar      1 <0>         0.2737
     16 C15         1.6154   -7.3062    0.6668 C.ar      1 <0>        -0.1685
     17 N2          3.7216   -7.9914    1.6170 N.2       1 <0>        -1.0800
     18 S1          5.1822   -7.6015    2.2928 S.o2      1 <0>         2.5910
     19 O1          5.9399   -6.9566    1.2783 O.2       1 <0>        -1.0195
     20 O2          4.9002   -6.9846    3.5415 O.2       1 <0>        -1.0195
     21 C16         6.0095   -9.1147    2.6542 C.ar      1 <0>        -0.5682
     22 C17         5.8299   -9.7246    3.8817 C.ar      1 <0>        -0.0232
     23 C18         6.4790  -10.9117    4.1652 C.ar      1 <0>        -0.0795
     24 C19         7.3073  -11.4891    3.2211 C.ar      1 <0>        -0.0182
     25 C20         7.4862  -10.8797    1.9933 C.ar      1 <0>        -0.0795
     26 C21         6.8338   -9.6948    1.7082 C.ar      1 <0>        -0.0233
     27 N3          8.0031  -12.7597    3.5251 N.pl3     1 <0>         0.0328
     28 O3          7.8469  -13.2925    4.5990 O.2       1 <0>        -0.1579
     29 O4          8.7275  -13.2648    2.6994 O.3       1 <0>        -0.1580
     30 C22        -1.3666   -7.4056   -0.7248 C.2       1 <0>         0.4289
     31 O5         -2.4588   -7.2497   -1.2316 O.2       1 <0>        -0.5073
     32 C23        -0.8348   -8.7966   -0.4938 C.3       1 <0>        -0.1952
     33 C24        -2.2283   -4.4507   -1.0905 C.3       1 <0>        -0.1007
     34 H1          1.0042    1.8801    0.0026 H         1 <0>         0.0721
     35 H2         -0.5455    1.8639   -0.8728 H         1 <0>         0.0670
     36 H3         -0.5286    1.8543    0.9071 H         1 <0>         0.0672
     37 H4         -0.0067   -0.1407   -2.1315 H         1 <0>         0.1288
     38 H5          0.0274   -2.6015   -2.1504 H         1 <0>         0.1285
     39 H6          0.0485   -2.6247    2.1257 H         1 <0>         0.1311
     40 H7          0.0244   -0.1637    2.1338 H         1 <0>         0.1294
     41 H8          2.6156   -3.6033    1.1626 H         1 <0>         0.1057
     42 H9          4.1457   -5.3949    1.8439 H         1 <0>         0.1056
     43 H10         1.3418   -8.3416    0.5270 H         1 <0>         0.1243
     44 H11         5.1827   -9.2734    4.6193 H         1 <0>         0.1616
     45 H12         6.3392  -11.3878    5.1245 H         1 <0>         0.1578
     46 H13         8.1337  -11.3306    1.2559 H         1 <0>         0.1577
     47 H14         6.9707   -9.2206    0.7476 H         1 <0>         0.1616
     48 H15        -0.6533   -8.9441    0.5708 H         1 <0>         0.0913
     49 H16        -1.5646   -9.5272   -0.8426 H         1 <0>         0.0713
     50 H17         0.0983   -8.9246   -1.0426 H         1 <0>         0.0914
     51 H18        -2.1054   -4.3180   -2.1653 H         1 <0>         0.0808
     52 H19        -3.0212   -5.1746   -0.9021 H         1 <0>         0.1038
     53 H20        -2.4916   -3.4964   -0.6343 H         1 <0>         0.0647
@<TRIPOS>BOND
     1    1    2 1
     2    1   34 1
     3    1   35 1
     4    1   36 1
     5    2    7 ar
     6    2    3 ar
     7    3    4 ar
     8    3   37 1
     9    4    5 ar
    10    4   38 1
    11    5    6 ar
    12    5    8 1
    13    6    7 ar
    14    6   39 1
    15    7   40 1
    16    8   12 1
    17    8    9 1
    18    9   10 2
    19    9   33 1
    20   10   11 1
    21   10   30 1
    22   11   16 ar
    23   11   12 ar
    24   12   13 ar
    25   13   14 ar
    26   13   41 1
    27   14   15 ar
    28   14   42 1
    29   15   16 ar
    30   15   17 1
    31   16   43 1
    32   17   18 1
    33   18   19 2
    34   18   20 2
    35   18   21 1
    36   21   26 ar
    37   21   22 ar
    38   22   23 ar
    39   22   44 1
    40   23   24 ar
    41   23   45 1
    42   24   25 ar
    43   24   27 1
    44   25   26 ar
    45   25   46 1
    46   26   47 1
    47   27   28 2
    48   27   29 1
    49   30   31 2
    50   30   32 1
    51   32   48 1
    52   32   49 1
    53   32   50 1
    54   33   51 1
    55   33   52 1
    56   33   53 1
@<TRIPOS>MOLECULE
ZINC02454554
   49    51     0     0     0
SMALL
USER_CHARGES
3-[5-[(4-ethylphenyl)methylene]-4-oxo-2-thioxo-thiazolidin-3-yl]-N-(2-hydroxy-5-nitro-phenyl)-propanamide
@<TRIPOS>ATOM
      1 C1         -3.5028    5.0908   -9.5000 C.3       1 <0>        -0.1481
      2 C2         -4.3368    5.2013   -8.2221 C.3       1 <0>        -0.0913
      3 C3         -3.4497    4.9854   -7.0231 C.ar      1 <0>        -0.0548
      4 C4         -2.8190    6.0655   -6.4302 C.ar      1 <0>        -0.1219
      5 C5         -2.0058    5.8765   -5.3330 C.ar      1 <0>        -0.0740
      6 C6         -1.8190    4.5885   -4.8190 C.ar      1 <0>        -0.1038
      7 C7         -2.4561    3.5014   -5.4275 C.ar      1 <0>        -0.0868
      8 C8         -3.2705    3.7082   -6.5205 C.ar      1 <0>        -0.1156
      9 C9         -0.9533    4.3778   -3.6497 C.2       1 <0>         0.0872
     10 C10        -1.1335    3.2904   -2.8598 C.2       1 <0>        -0.2394
     11 C11        -0.3273    2.8119   -1.7164 C.2       1 <0>         0.5422
     12 O1          0.6666    3.4054   -1.3415 O.2       1 <0>        -0.4494
     13 N1         -0.7422    1.7059   -1.1219 N.am      1 <0>        -0.5200
     14 C12        -1.8416    1.0487   -1.5437 C.2       1 <0>         0.2672
     15 S1         -2.5273   -0.3884   -0.9149 S.2       1 <0>        -0.3226
     16 S2         -2.4106    2.0408   -2.9149 S.3       1 <0>         0.0664
     17 C13         0.0134    1.1791    0.0173 C.3       1 <0>         0.0995
     18 C14        -0.5316    1.7824    1.3135 C.3       1 <0>        -0.1510
     19 C15         0.2457    1.2406    2.4854 C.2       1 <0>         0.5105
     20 O2          1.1469    0.4497    2.3020 O.2       1 <0>        -0.5305
     21 N2         -0.0605    1.6348    3.7373 N.am      1 <0>        -0.6325
     22 C16         0.7387    1.2297    4.8146 C.ar      1 <0>        -0.0045
     23 C17         2.0661    0.8855    4.6051 C.ar      1 <0>        -0.0215
     24 C18         2.8523    0.4862    5.6691 C.ar      1 <0>        -0.1647
     25 C19         2.3194    0.4290    6.9438 C.ar      1 <0>        -0.0146
     26 C20         0.9974    0.7704    7.1604 C.ar      1 <0>        -0.2483
     27 C21         0.2039    1.1769    6.0998 C.ar      1 <0>         0.2985
     28 N3          4.2685    0.1193    5.4438 N.pl3     1 <0>         0.0684
     29 O3          4.7396    0.1696    4.3217 O.2       1 <0>        -0.2174
     30 O4          4.9628   -0.2328    6.3806 O.3       1 <0>        -0.2258
     31 H1         -2.7177    5.8468   -9.4881 H         1 <0>         0.0568
     32 H2         -3.0521    4.0998   -9.5552 H         1 <0>         0.0574
     33 H3         -4.1444    5.2469  -10.3673 H         1 <0>         0.0606
     34 H4         -5.1218    4.4452   -8.2341 H         1 <0>         0.0764
     35 H5         -4.7875    6.1922   -8.1669 H         1 <0>         0.0756
     36 H6         -2.9645    7.0589   -6.8279 H         1 <0>         0.1302
     37 H7         -1.5147    6.7203   -4.8713 H         1 <0>         0.1342
     38 H8         -2.3135    2.5036   -5.0396 H         1 <0>         0.1348
     39 H9         -3.7668    2.8708   -6.9885 H         1 <0>         0.1313
     40 H10        -0.1738    5.0891   -3.4198 H         1 <0>         0.1637
     41 H11        -0.0884    0.0944    0.0505 H         1 <0>         0.1245
     42 H12         1.0655    1.4422   -0.0916 H         1 <0>         0.1164
     43 H13        -0.4298    2.8671    1.2803 H         1 <0>         0.0989
     44 H14        -1.5837    1.5193    1.4225 H         1 <0>         0.1036
     45 H15        -0.8342    2.1990    3.8926 H         1 <0>         0.4132
     46 H16         2.4849    0.9293    3.6105 H         1 <0>         0.1507
     47 H17         2.9378    0.1170    7.7725 H         1 <0>         0.1264
     48 H18         0.5843    0.7247    8.1572 H         1 <0>         0.1253
     49 O5         -1.0950    1.5184    6.3121 O.3       1 <0>        -0.6811
@<TRIPOS>BOND
     1    1    2 1
     2    1   31 1
     3    1   32 1
     4    1   33 1
     5    2    3 1
     6    2   34 1
     7    2   35 1
     8    3    8 ar
     9    3    4 ar
    10    4    5 ar
    11    4   36 1
    12    5    6 ar
    13    5   37 1
    14    6    7 ar
    15    6    9 1
    16    7    8 ar
    17    7   38 1
    18    8   39 1
    19    9   10 2
    20    9   40 1
    21   10   16 1
    22   10   11 1
    23   11   12 2
    24   11   13 am
    25   13   14 1
    26   13   17 1
    27   14   15 2
    28   14   16 1
    29   17   18 1
    30   17   41 1
    31   17   42 1
    32   18   19 1
    33   18   43 1
    34   18   44 1
    35   19   20 2
    36   19   21 am
    37   21   22 1
    38   21   45 1
    39   22   27 ar
    40   22   23 ar
    41   23   24 ar
    42   23   46 1
    43   24   25 ar
    44   24   28 1
    45   25   26 ar
    46   25   47 1
    47   26   27 ar
    48   26   48 1
    49   27   49 1
    50   28   29 2
    51   28   30 1
@<TRIPOS>MOLECULE
ZINC13052161
   49    52     0     0     0
SMALL
USER_CHARGES
2-[[5-(4-chlorophenyl)oxazol-2-yl]methylsulfanyl]-3-[(2S)-2-hydroxypropyl]-4-oxo-quinazoline-7-carboxylic acid
@<TRIPOS>ATOM
      1 C1          1.1447    5.6045    1.4645 C.3       1 <0>        -0.1808
      2 C2          1.2337    4.0772    1.4541 C.3       1 <0>         0.0849
      3 H1          0.3868    3.6601    1.9990 H         1 <0>         0.1075
      4 C3          1.2079    3.5746    0.0092 C.3       1 <0>         0.0579
      5 N1          1.1727    2.1100    0.0022 N.am      1 <0>        -0.5240
      6 C4         -0.0179    1.4674    0.0101 C.2       1 <0>         0.5587
      7 O1         -1.0672    2.0839    0.0185 O.2       1 <0>        -0.5154
      8 C5          0.0021   -0.0041    0.0020 C.ar      1 <0>        -0.1942
      9 C6         -1.1746   -0.7523    0.0097 C.ar      1 <0>        -0.0632
     10 C7         -1.1137   -2.1162    0.0027 C.ar      1 <0>        -0.0852
     11 C8          0.1228   -2.7748   -0.0131 C.ar      1 <0>        -0.0659
     12 C9          1.3074   -2.0493   -0.0210 C.ar      1 <0>        -0.0713
     13 C10         1.2576   -0.6525   -0.0135 C.ar      1 <0>         0.1393
     14 N2          2.3863    0.0951   -0.0202 N.2       1 <0>        -0.5099
     15 C11         2.3418    1.4045   -0.0128 C.2       1 <0>         0.3602
     16 S1          3.8612    2.2967   -0.0231 S.3       1 <0>         0.0128
     17 C12         5.0347    0.9188   -0.0421 C.3       1 <0>        -0.0163
     18 C13         6.4420    1.4576   -0.0532 C.2       1 <0>         0.2078
     19 N3          7.1571    1.7277    1.0026 N.2       1 <0>        -0.4520
     20 C14         8.3557    2.1849    0.6104 C.2       1 <0>        -0.0103
     21 C15         8.3631    2.1998   -0.7472 C.2       1 <0>        -0.0025
     22 O2          7.1576    1.7415   -1.1501 O.3       1 <0>        -0.1854
     23 C16         9.4763    2.6341   -1.6175 C.ar      1 <0>        -0.0081
     24 C17        10.6686    3.0916   -1.0542 C.ar      1 <0>        -0.0826
     25 C18        11.7054    3.4915   -1.8714 C.ar      1 <0>        -0.1047
     26 C19        11.5616    3.4487   -3.2480 C.ar      1 <0>        -0.0278
     27 C20        10.3793    3.0008   -3.8126 C.ar      1 <0>        -0.1051
     28 C21         9.3372    2.5938   -3.0057 C.ar      1 <0>        -0.0858
     29 Cl1        12.8687    3.9593   -4.2700 Cl        1 <0>        -0.0637
     30 C22         0.1671   -4.2536   -0.0210 C.2       1 <0>         0.4878
     31 O3          1.2365   -4.8289   -0.0343 O.co2     1 <0>        -0.6205
     32 O4          2.4512    3.6667    2.0796 O.3       1 <0>        -0.5469
     33 H2          0.2160    5.9176    0.9874 H         1 <0>         0.0708
     34 H3          1.1630    5.9626    2.4938 H         1 <0>         0.0722
     35 H4          1.9916    6.0215    0.9196 H         1 <0>         0.0618
     36 H5          2.1015    3.9190   -0.5113 H         1 <0>         0.0967
     37 H6          0.3221    3.9617   -0.4944 H         1 <0>         0.1133
     38 H7         -2.1326   -0.2537    0.0219 H         1 <0>         0.1342
     39 H8         -2.0269   -2.6927    0.0090 H         1 <0>         0.1438
     40 H9          2.2589   -2.5603   -0.0325 H         1 <0>         0.1457
     41 H10         4.8879    0.3042    0.8461 H         1 <0>         0.1477
     42 H11         4.8702    0.3138   -0.9338 H         1 <0>         0.1329
     43 H12         9.1656    2.4894    1.2567 H         1 <0>         0.1918
     44 H13        10.7805    3.1290    0.0193 H         1 <0>         0.1415
     45 H14        12.6297    3.8424   -1.4368 H         1 <0>         0.1426
     46 H15        10.2727    2.9704   -4.8869 H         1 <0>         0.1408
     47 H16         8.4153    2.2449   -3.4472 H         1 <0>         0.1403
     48 H17         3.2483    4.0019    1.6466 H         1 <0>         0.3723
     49 O5         -0.9785   -4.9618   -0.0134 O.co2     1 <0>        -0.7435
@<TRIPOS>BOND
     1    1    2 1
     2    1   33 1
     3    1   34 1
     4    1   35 1
     5    2    3 1
     6    2    4 1
     7    2   32 1
     8    4    5 1
     9    4   36 1
    10    4   37 1
    11    5   15 1
    12    5    6 am
    13    6    7 2
    14    6    8 1
    15    8   13 ar
    16    8    9 ar
    17    9   10 ar
    18    9   38 1
    19   10   11 ar
    20   10   39 1
    21   11   12 ar
    22   11   30 1
    23   12   13 ar
    24   12   40 1
    25   13   14 1
    26   14   15 2
    27   15   16 1
    28   16   17 1
    29   17   18 1
    30   17   41 1
    31   17   42 1
    32   18   22 1
    33   18   19 2
    34   19   20 1
    35   20   21 2
    36   20   43 1
    37   21   22 1
    38   21   23 1
    39   23   28 ar
    40   23   24 ar
    41   24   25 ar
    42   24   44 1
    43   25   26 ar
    44   25   45 1
    45   26   27 ar
    46   26   29 1
    47   27   28 ar
    48   27   46 1
    49   28   47 1
    50   30   31 2
    51   30   49 1
    52   32   48 1
@<TRIPOS>MOLECULE
ZINC21722511
   61    65     0     0     0
SMALL
USER_CHARGES
4-[(6R,9S)-9-(2-furyl)-6-(4-methoxyphenyl)-7-oxo-8,9,10,11-tetrahydro-6H-benzo[c][1,5]benzodiazepin-5-yl]-4-oxo-butanoic acid
@<TRIPOS>ATOM
      1 C1         -1.5933   10.1175   -1.4628 C.3       1 <0>         0.0255
      2 O1         -0.3520   10.1319   -2.1706 O.3       1 <0>        -0.3191
      3 C2          0.6565    9.3757   -1.6628 C.ar      1 <0>         0.1258
      4 C3          1.8888    9.3430   -2.2993 C.ar      1 <0>        -0.1544
      5 C4          2.9125    8.5739   -1.7809 C.ar      1 <0>        -0.0437
      6 C5          2.7098    7.8369   -0.6287 C.ar      1 <0>        -0.1149
      7 C6          1.4809    7.8633    0.0043 C.ar      1 <0>        -0.0643
      8 C7          0.4557    8.6353   -0.5069 C.ar      1 <0>        -0.2099
      9 C8          3.8283    6.9987   -0.0654 C.3       1 <0>         0.2445
     10 H1          4.7753    7.0937   -0.6169 H         1 <0>         0.1238
     11 C9          3.4115    5.5485   -0.1161 C.2       1 <0>        -0.2885
     12 C10         3.1038    4.7788    0.9419 C.2       1 <0>         0.2650
     13 C11         2.7028    3.3262    0.7470 C.3       1 <0>        -0.1050
     14 C12         1.9648    3.1630   -0.5806 C.3       1 <0>         0.0077
     15 H2          1.0385    3.7562   -0.5878 H         1 <0>         0.1095
     16 C13         2.9137    3.6082   -1.6998 C.3       1 <0>        -0.1613
     17 C14         3.3473    5.0170   -1.4259 C.2       1 <0>         0.4030
     18 O2          3.6543    5.7281   -2.3626 O.2       1 <0>        -0.4624
     19 C15         1.5834    1.7186   -0.7788 C.2       1 <0>        -0.0070
     20 C16         0.3314    1.2482   -0.9224 C.2       1 <0>        -0.2037
     21 C17         0.4360   -0.1528   -1.0808 C.2       1 <0>        -0.2144
     22 C18         1.7456   -0.4547   -1.0245 C.2       1 <0>        -0.0390
     23 O3          2.4358    0.6827   -0.8415 O.3       1 <0>        -0.1720
     24 N1          3.1304    5.1938    2.2341 N.pl3     1 <0>        -0.7018
     25 C19         2.5847    6.3831    2.6987 C.ar      1 <0>         0.1346
     26 C20         1.5589    6.4123    3.6278 C.ar      1 <0>        -0.1182
     27 C21         1.1394    7.6295    4.1366 C.ar      1 <0>        -0.1087
     28 C22         1.7386    8.8041    3.7188 C.ar      1 <0>        -0.1045
     29 C23         2.7488    8.7776    2.7733 C.ar      1 <0>        -0.1002
     30 C24         3.1591    7.5624    2.2493 C.ar      1 <0>         0.1354
     31 N2          4.1412    7.4881    1.2605 N.am      1 <0>        -0.5620
     32 C25         5.3998    7.8775    1.5444 C.2       1 <0>         0.5195
     33 O4          6.2605    7.8164    0.6919 O.2       1 <0>        -0.5224
     34 C26         5.7379    8.3889    2.9211 C.3       1 <0>        -0.1125
     35 C27         7.2210    8.7606    2.9771 C.3       1 <0>        -0.1430
     36 C28         7.5591    9.2719    4.3538 C.2       1 <0>         0.4616
     37 O5          6.7017    9.3328    5.2031 O.co2     1 <0>        -0.6431
     38 O6          8.8126    9.6597    4.6366 O.co2     1 <0>        -0.7715
     39 H3         -2.3166   10.7668   -1.9778 H         1 <0>         0.0987
     40 H4         -1.4354   10.4850   -0.4381 H         1 <0>         0.0557
     41 H5         -1.9834    9.0896   -1.4277 H         1 <0>         0.0537
     42 H6          2.0475    9.9182   -3.1995 H         1 <0>         0.1289
     43 H7          3.8721    8.5484   -2.2758 H         1 <0>         0.1310
     44 H8          1.3236    7.2830    0.9015 H         1 <0>         0.1212
     45 H9         -0.5027    8.6591   -0.0096 H         1 <0>         0.1241
     46 H10         3.6035    2.6948    0.7409 H         1 <0>         0.0985
     47 H11         2.0422    3.0146    1.5695 H         1 <0>         0.0950
     48 H12         3.7903    2.9441   -1.7231 H         1 <0>         0.1072
     49 H13         2.3901    3.5583   -2.6659 H         1 <0>         0.1004
     50 H14        -0.5787    1.8297   -0.9216 H         1 <0>         0.1476
     51 H15        -0.3792   -0.8473   -1.2208 H         1 <0>         0.1478
     52 H16         2.1700   -1.4440   -1.1121 H         1 <0>         0.2025
     53 H17         3.6109    4.5701    3.0023 H         1 <0>         0.4329
     54 H18         1.0907    5.4948    3.9525 H         1 <0>         0.1301
     55 H19         0.3404    7.6622    4.8626 H         1 <0>         0.1285
     56 H20         1.4163    9.7479    4.1334 H         1 <0>         0.1297
     57 H21         3.2131    9.6963    2.4465 H         1 <0>         0.1307
     58 H22         5.1285    9.2777    3.1420 H         1 <0>         0.0948
     59 H23         5.5277    7.6062    3.6649 H         1 <0>         0.0919
     60 H24         7.8303    7.8718    2.7562 H         1 <0>         0.0698
     61 H25         7.4312    9.5434    2.2334 H         1 <0>         0.0709
@<TRIPOS>BOND
     1    1    2 1
     2    1   39 1
     3    1   40 1
     4    1   41 1
     5    2    3 1
     6    3    8 ar
     7    3    4 ar
     8    4    5 ar
     9    4   42 1
    10    5    6 ar
    11    5   43 1
    12    6    7 ar
    13    6    9 1
    14    7    8 ar
    15    7   44 1
    16    8   45 1
    17    9   10 1
    18    9   31 1
    19    9   11 1
    20   11   17 1
    21   11   12 2
    22   12   13 1
    23   12   24 1
    24   13   14 1
    25   13   46 1
    26   13   47 1
    27   14   15 1
    28   14   16 1
    29   14   19 1
    30   16   17 1
    31   16   48 1
    32   16   49 1
    33   17   18 2
    34   19   23 1
    35   19   20 2
    36   20   21 1
    37   20   50 1
    38   21   22 2
    39   21   51 1
    40   22   23 1
    41   22   52 1
    42   24   25 1
    43   24   53 1
    44   25   30 ar
    45   25   26 ar
    46   26   27 ar
    47   26   54 1
    48   27   28 ar
    49   27   55 1
    50   28   29 ar
    51   28   56 1
    52   29   30 ar
    53   29   57 1
    54   30   31 1
    55   31   32 am
    56   32   33 2
    57   32   34 1
    58   34   35 1
    59   34   58 1
    60   34   59 1
    61   35   36 1
    62   35   60 1
    63   35   61 1
    64   36   37 2
    65   36   38 1
@<TRIPOS>MOLECULE
ZINC01767759
   46    49     0     0     0
SMALL
USER_CHARGES

@<TRIPOS>ATOM
      1 C1          0.5716   -0.3355   -0.2947 C.ar      1 <0>        -0.0685
      2 C2          1.6612    0.5039   -0.2601 C.ar      1 <0>        -0.1616
      3 C3          2.8862    0.0381    0.2088 C.ar      1 <0>         0.1230
      4 C4          3.0140   -1.2775    0.6449 C.ar      1 <0>        -0.1366
      5 C5          1.9289   -2.1230    0.6140 C.ar      1 <0>        -0.0677
      6 C6          0.6959   -1.6587    0.1428 C.ar      1 <0>        -0.1429
      7 C7         -0.4677   -2.5601    0.1080 C.2       1 <0>         0.5196
      8 O1         -1.5451   -2.1524   -0.3039 O.co2     1 <0>        -0.6895
      9 O2         -0.3572   -3.7167    0.4909 O.co2     1 <0>        -0.6873
     10 N1          3.9875    0.8910    0.2414 N.am      1 <0>        -0.6627
     11 C8          5.2310    0.3918    0.0962 C.2       1 <0>         0.5192
     12 O3          5.3864   -0.7826   -0.1633 O.2       1 <0>        -0.5131
     13 C9          6.4282    1.2929    0.2564 C.3       1 <0>        -0.1530
     14 C10         7.7085    0.4829    0.0427 C.3       1 <0>         0.0981
     15 N2          8.8723    1.3590    0.1984 N.am      1 <0>        -0.5200
     16 C11         9.3493    1.9939   -0.8591 C.2       1 <0>         0.5443
     17 O4          8.8461    1.8695   -1.9603 O.2       1 <0>        -0.4492
     18 C12        10.5229    2.8617   -0.6361 C.2       1 <0>        -0.2393
     19 C13        11.2156    3.6244   -1.5200 C.2       1 <0>         0.0915
     20 C14        12.4721    4.2644   -1.1105 C.ar      1 <0>        -0.0892
     21 C15        13.0578    3.9399    0.1192 C.ar      1 <0>        -0.0720
     22 C16        14.2364    4.5421    0.5001 C.ar      1 <0>        -0.0972
     23 C17        14.8480    5.4715   -0.3311 C.ar      1 <0>         0.0644
     24 C18        14.2703    5.8005   -1.5585 C.ar      1 <0>         0.0297
     25 C19        13.0918    5.1972   -1.9509 C.ar      1 <0>        -0.0583
     26 O5         15.0598    6.7272   -2.1767 O.3       1 <0>        -0.3035
     27 C20        15.9043    7.2639   -1.1416 C.3       1 <0>         0.2117
     28 O6         15.9971    6.1923   -0.1847 O.3       1 <0>        -0.3019
     29 S1         10.7801    2.6328    1.1181 S.3       1 <0>         0.0715
     30 C21         9.4295    1.5040    1.4179 C.2       1 <0>         0.2578
     31 S2          8.9579    0.7789    2.8953 S.2       1 <0>        -0.3194
     32 H1         -0.3796    0.0277   -0.6548 H         1 <0>         0.1303
     33 H2          1.5661    1.5253   -0.5976 H         1 <0>         0.1163
     34 H3          3.9663   -1.6353    1.0078 H         1 <0>         0.1307
     35 H4          2.0290   -3.1437    0.9522 H         1 <0>         0.1300
     36 H5          3.8593    1.8440    0.3685 H         1 <0>         0.4069
     37 H6          6.3794    2.0961   -0.4789 H         1 <0>         0.1006
     38 H7          6.4308    1.7187    1.2598 H         1 <0>         0.1067
     39 H8          7.7573   -0.3202    0.7780 H         1 <0>         0.1250
     40 H9          7.7058    0.0572   -0.9607 H         1 <0>         0.1164
     41 H10        10.8425    3.7604   -2.5243 H         1 <0>         0.1683
     42 H11        12.5854    3.2179    0.7688 H         1 <0>         0.1448
     43 H12        14.6866    4.2908    1.4491 H         1 <0>         0.1486
     44 H13        12.6465    5.4478   -2.9024 H         1 <0>         0.1498
     45 H14        16.8893    7.5083   -1.5394 H         1 <0>         0.1373
     46 H15        15.4443    8.1424   -0.6892 H         1 <0>         0.0906
@<TRIPOS>BOND
     1    1    6 ar
     2    1    2 ar
     3    1   32 1
     4    2    3 ar
     5    2   33 1
     6    3    4 ar
     7    3   10 1
     8    4    5 ar
     9    4   34 1
    10    5    6 ar
    11    5   35 1
    12    6    7 1
    13    7    8 2
    14    7    9 1
    15   10   11 am
    16   10   36 1
    17   11   12 2
    18   11   13 1
    19   13   14 1
    20   13   37 1
    21   13   38 1
    22   14   15 1
    23   14   39 1
    24   14   40 1
    25   15   30 1
    26   15   16 am
    27   16   17 2
    28   16   18 1
    29   18   19 2
    30   18   29 1
    31   19   20 1
    32   19   41 1
    33   20   25 ar
    34   20   21 ar
    35   21   22 ar
    36   21   42 1
    37   22   23 ar
    38   22   43 1
    39   23   28 1
    40   23   24 ar
    41   24   25 ar
    42   24   26 1
    43   25   44 1
    44   26   27 1
    45   27   28 1
    46   27   45 1
    47   27   46 1
    48   29   30 1
    49   30   31 2
@<TRIPOS>MOLECULE
ZINC17061963
   52    55     0     0     0
SMALL
USER_CHARGES

@<TRIPOS>ATOM
      1 C1         -1.2095    1.3614    0.0470 C.3       1 <0>        -0.1218
      2 C2         -0.8768   -0.1083    0.0292 C.ar      1 <0>        -0.0583
      3 C3         -0.5160   -0.7179   -1.1600 C.ar      1 <0>        -0.1260
      4 C4         -0.2105   -2.0621   -1.1849 C.ar      1 <0>        -0.0727
      5 C5         -0.2655   -2.8101   -0.0037 C.ar      1 <0>        -0.1024
      6 C6         -0.6307   -2.1861    1.1943 C.ar      1 <0>        -0.0820
      7 C7         -0.9281   -0.8399    1.2031 C.ar      1 <0>        -0.1201
      8 C8          0.0582   -4.2441   -0.0213 C.2       1 <0>         0.0742
      9 C9          0.1753   -4.9270    1.1441 C.2       1 <0>        -0.2133
     10 C10         0.3219   -6.3799    1.3745 C.2       1 <0>         0.5580
     11 O1          0.3545   -7.1736    0.4528 O.2       1 <0>        -0.4624
     12 N1          0.4161   -6.7727    2.6337 N.am      1 <0>        -0.5738
     13 C11         0.3794   -5.8896    3.6521 C.2       1 <0>         0.5298
     14 O2          0.4541   -6.1102    4.8459 O.2       1 <0>        -0.4118
     15 S1          0.2028   -4.3174    2.8243 S.3       1 <0>        -0.0374
     16 C12         0.5633   -8.2000    2.9291 C.3       1 <0>         0.0803
     17 C13         2.0492   -8.5625    2.9665 C.3       1 <0>         0.1094
     18 N2          2.1964   -9.9899    3.2619 N.am      1 <0>        -0.7249
     19 C14         3.4250  -10.5377    3.3448 C.2       1 <0>         0.5662
     20 O3          4.4106   -9.8477    3.1745 O.2       1 <0>        -0.5274
     21 C15         3.5738  -11.9810    3.6435 C.ar      1 <0>        -0.0825
     22 C16         2.4308  -12.7731    3.8334 C.ar      1 <0>        -0.1674
     23 C17         2.5415  -14.1019    4.1089 C.ar      1 <0>        -0.0120
     24 C18         3.8096  -14.6922    4.2055 C.ar      1 <0>        -0.2209
     25 C19         4.9743  -13.9031    4.0158 C.ar      1 <0>         0.2125
     26 C20         4.8395  -12.5374    3.7272 C.ar      1 <0>        -0.0700
     27 N3          6.1792  -14.4829    4.1111 N.2       1 <0>        -0.5510
     28 C21         6.2892  -15.7752    4.3786 C.2       1 <0>         0.5023
     29 N4          5.2188  -16.5650    4.5660 N.pl3     1 <0>        -0.4943
     30 C22         3.9663  -16.0656    4.4890 C.2       1 <0>         0.5007
     31 O4          2.8959  -16.8572    4.6768 O.3       1 <0>        -0.6098
     32 C23         5.4128  -17.9873    4.8584 C.3       1 <0>         0.0526
     33 S2          7.8524  -16.4646    4.4891 S.2       1 <0>        -0.7068
     34 H1         -0.3026    1.9370    0.2324 H         1 <0>         0.0766
     35 H2         -1.6326    1.6499   -0.9152 H         1 <0>         0.0705
     36 H3         -1.9339    1.5604    0.8368 H         1 <0>         0.0706
     37 H4         -0.4741   -0.1391   -2.0708 H         1 <0>         0.1307
     38 H5          0.0701   -2.5365   -2.1137 H         1 <0>         0.1349
     39 H6         -0.6754   -2.7566    2.1102 H         1 <0>         0.1354
     40 H7         -1.2058   -0.3558    2.1277 H         1 <0>         0.1312
     41 H8          0.2026   -4.7536   -0.9626 H         1 <0>         0.1641
     42 H9          0.1113   -8.4193    3.8965 H         1 <0>         0.1074
     43 H10         0.0661   -8.7844    2.1549 H         1 <0>         0.1110
     44 H11         2.5012   -8.3432    1.9991 H         1 <0>         0.0772
     45 H12         2.5464   -7.9781    3.7407 H         1 <0>         0.0752
     46 H13         1.4096  -10.5406    3.3978 H         1 <0>         0.4040
     47 H14         1.4517  -12.3231    3.7603 H         1 <0>         0.1221
     48 H15         1.6539  -14.7001    4.2532 H         1 <0>         0.1358
     49 H16         5.7152  -11.9238    3.5755 H         1 <0>         0.1468
     50 H17         6.4793  -18.2112    4.8824 H         1 <0>         0.1289
     51 H18         4.9702  -18.2230    5.8262 H         1 <0>         0.0702
     52 H19         4.9332  -18.5861    4.0841 H         1 <0>         0.0702
@<TRIPOS>BOND
     1    1    2 1
     2    1   34 1
     3    1   35 1
     4    1   36 1
     5    2    7 ar
     6    2    3 ar
     7    3    4 ar
     8    3   37 1
     9    4    5 ar
    10    4   38 1
    11    5    6 ar
    12    5    8 1
    13    6    7 ar
    14    6   39 1
    15    7   40 1
    16    8    9 2
    17    8   41 1
    18    9   15 1
    19    9   10 1
    20   10   11 2
    21   10   12 am
    22   12   13 am
    23   12   16 1
    24   13   14 2
    25   13   15 1
    26   16   17 1
    27   16   42 1
    28   16   43 1
    29   17   18 1
    30   17   44 1
    31   17   45 1
    32   18   19 am
    33   18   46 1
    34   19   20 2
    35   19   21 1
    36   21   26 ar
    37   21   22 ar
    38   22   23 ar
    39   22   47 1
    40   23   24 ar
    41   23   48 1
    42   24   30 2
    43   24   25 ar
    44   25   26 ar
    45   25   27 2
    46   26   49 1
    47   27   28 1
    48   28   29 1
    49   28   33 2
    50   29   30 1
    51   29   32 1
    52   30   31 1
    53   32   50 1
    54   32   51 1
    55   32   52 1
@<TRIPOS>MOLECULE
ZINC18057347
   52    55     0     0     0
SMALL
USER_CHARGES

@<TRIPOS>ATOM
      1 C1          0.1230    1.5687    0.0125 C.3       1 <0>        -0.1456
      2 C2          0.1155    0.0388    0.0021 C.3       1 <0>        -0.1120
      3 C3          0.8419   -0.4832    1.2434 C.3       1 <0>         0.0004
      4 C4          0.8345   -1.9901    1.2333 C.2       1 <0>        -0.4434
      5 C5          1.9080   -2.6973    0.7182 C.2       1 <0>         0.4567
      6 N1          1.8846   -4.0329    0.7177 N.2       1 <0>        -0.5315
      7 C6          0.8543   -4.6977    1.2003 C.2       1 <0>         0.3497
      8 N2         -0.2264   -4.0502    1.7178 N.am      1 <0>        -0.6338
      9 C7         -0.2552   -2.7013    1.7496 C.2       1 <0>         0.5278
     10 O1         -1.2169   -2.1115    2.2160 O.2       1 <0>        -0.6000
     11 S1          0.8749   -6.4594    1.1752 S.3       1 <0>        -0.0042
     12 C8          2.4703   -6.8689    0.4153 C.3       1 <0>        -0.1077
     13 H1          3.2852   -6.3815    0.9506 H         1 <0>         0.1600
     14 C9          2.6797   -8.3965    0.3823 C.3       1 <0>        -0.1300
     15 C10         2.7856   -8.7081   -1.0946 C.2       1 <0>         0.5344
     16 O2          2.9557   -9.8106   -1.5692 O.2       1 <0>        -0.4717
     17 N3          2.6612   -7.5735   -1.7942 N.am      1 <0>        -0.5126
     18 C11         2.4814   -6.4741   -1.0454 C.2       1 <0>         0.5241
     19 O3          2.3477   -5.3461   -1.4690 O.2       1 <0>        -0.3950
     20 C12         2.7164   -7.5356   -3.1959 C.ar      1 <0>         0.0873
     21 C13         2.4545   -6.3502   -3.8692 C.ar      1 <0>        -0.0958
     22 C14         2.5088   -6.3133   -5.2484 C.ar      1 <0>        -0.1734
     23 C15         2.8246   -7.4610   -5.9614 C.ar      1 <0>         0.1125
     24 C16         3.0860   -8.6462   -5.2887 C.ar      1 <0>        -0.1295
     25 C17         3.0383   -8.6822   -3.9092 C.ar      1 <0>        -0.1023
     26 O4          2.8775   -7.4245   -7.3192 O.3       1 <0>        -0.2591
     27 C18         2.7211   -6.2216   -7.9315 C.ar      1 <0>         0.0835
     28 C19         3.7581   -5.2996   -7.9276 C.ar      1 <0>        -0.1323
     29 C20         3.5966   -4.0777   -8.5512 C.ar      1 <0>        -0.1040
     30 C21         2.4029   -3.7729   -9.1791 C.ar      1 <0>        -0.1190
     31 C22         1.3678   -4.6897   -9.1841 C.ar      1 <0>        -0.1056
     32 C23         1.5261   -5.9153   -8.5668 C.ar      1 <0>        -0.1229
     33 O5          2.9776   -2.0371    0.2164 O.3       1 <0>        -0.6665
     34 H2          1.1524    1.9271    0.0086 H         1 <0>         0.0486
     35 H3         -0.3945    1.9406   -0.8719 H         1 <0>         0.0411
     36 H4         -0.3836    1.9285    0.9080 H         1 <0>         0.0468
     37 H5         -0.9139   -0.3195    0.0060 H         1 <0>         0.0490
     38 H6          0.6221   -0.3210   -0.8934 H         1 <0>         0.0519
     39 H7          1.8713   -0.1248    1.2396 H         1 <0>         0.0562
     40 H8          0.3353   -0.1234    2.1390 H         1 <0>         0.0412
     41 H9          3.6001   -8.6688    0.8988 H         1 <0>         0.1417
     42 H10         1.8252   -8.9104    0.8225 H         1 <0>         0.1328
     43 H11         2.2080   -5.4570   -3.3144 H         1 <0>         0.1648
     44 H12         2.3051   -5.3911   -5.7723 H         1 <0>         0.1343
     45 H13         3.3310   -9.5395   -5.8440 H         1 <0>         0.1386
     46 H14         3.2465   -9.6034   -3.3855 H         1 <0>         0.1670
     47 H15         4.6905   -5.5370   -7.4371 H         1 <0>         0.1306
     48 H16         4.4033   -3.3596   -8.5482 H         1 <0>         0.1307
     49 H17         2.2788   -2.8170   -9.6661 H         1 <0>         0.1283
     50 H18         0.4362   -4.4489   -9.6745 H         1 <0>         0.1308
     51 H19         0.7190   -6.6329   -8.5752 H         1 <0>         0.1317
     52 H20        -0.9744   -4.5591    2.0676 H         1 <0>         0.3956
@<TRIPOS>BOND
     1    1    2 1
     2    1   34 1
     3    1   35 1
     4    1   36 1
     5    2    3 1
     6    2   37 1
     7    2   38 1
     8    3   39 1
     9    3   40 1
    10    3    4 1
    11    4    5 2
    12    4    9 1
    13    5   33 1
    14    5    6 1
    15    6    7 2
    16    7    8 1
    17    7   11 1
    18    8    9 am
    19    8   52 1
    20    9   10 2
    21   11   12 1
    22   12   13 1
    23   12   18 1
    24   12   14 1
    25   14   15 1
    26   14   41 1
    27   14   42 1
    28   15   16 2
    29   15   17 am
    30   17   18 am
    31   17   20 1
    32   18   19 2
    33   20   25 ar
    34   20   21 ar
    35   21   22 ar
    36   21   43 1
    37   22   23 ar
    38   22   44 1
    39   23   24 ar
    40   23   26 1
    41   24   25 ar
    42   24   45 1
    43   25   46 1
    44   26   27 1
    45   27   32 ar
    46   27   28 ar
    47   28   29 ar
    48   28   47 1
    49   29   30 ar
    50   29   48 1
    51   30   31 ar
    52   30   49 1
    53   31   32 ar
    54   31   50 1
    55   32   51 1
@<TRIPOS>MOLECULE
ZINC28155514
   56    59     0     0     0
SMALL
USER_CHARGES
2-[[2-[(5R)-2-[(5R)-3,5-bis(p-tolyl)-4,5-dihydropyrazol-1-yl]-4-oxo-thiazol-5-yl]acetyl]amino]acetic acid
@<TRIPOS>ATOM
      1 C1         -8.1902    4.3805   -4.6525 C.3       1 <0>        -0.1186
      2 C2         -7.3220    4.3909   -3.4208 C.ar      1 <0>        -0.0760
      3 C3         -7.8442    3.9948   -2.2037 C.ar      1 <0>        -0.1170
      4 C4         -7.0476    4.0035   -1.0740 C.ar      1 <0>        -0.0863
      5 C5         -5.7286    4.4078   -1.1615 C.ar      1 <0>        -0.1057
      6 C6         -5.2078    4.8089   -2.3775 C.ar      1 <0>        -0.0949
      7 C7         -6.0032    4.7961   -3.5081 C.ar      1 <0>        -0.1182
      8 C8         -4.8602    4.4173    0.0701 C.3       1 <0>         0.1521
      9 H1         -5.5440    4.4388    0.9314 H         1 <0>         0.1181
     10 C9         -3.8852    3.2234    0.0494 C.3       1 <0>        -0.1256
     11 C10        -2.5182    3.8695    0.0460 C.2       1 <0>         0.1668
     12 N1         -2.6479    5.1512    0.0532 N.2       1 <0>        -0.2298
     13 N2         -3.9705    5.5894    0.0675 N.pl3     1 <0>        -0.3900
     14 C11        -4.3749    6.8934    0.0773 C.2       1 <0>         0.5371
     15 N3         -5.6142    7.3670    0.0919 N.2       1 <0>        -0.6711
     16 C12        -5.9172    8.6362    0.1006 C.2       1 <0>         0.5414
     17 O1         -7.0673    9.0300    0.1135 O.2       1 <0>        -0.4618
     18 C13        -4.7293    9.5904    0.0929 C.3       1 <0>        -0.1311
     19 H2         -4.8593   10.3803   -0.6615 H         1 <0>         0.1644
     20 S1         -3.3594    8.3646    0.0816 S.3       1 <0>        -0.0574
     21 C14        -4.6936   10.4481    1.3594 C.3       1 <0>        -0.1221
     22 C15        -3.5788   11.4565    1.2519 C.2       1 <0>         0.5053
     23 O2         -2.8815   11.4861    0.2600 O.2       1 <0>        -0.5561
     24 N4         -3.3567   12.3253    2.2580 N.am      1 <0>        -0.7106
     25 C16        -2.2730   13.3055    2.1536 C.3       1 <0>         0.0790
     26 C17        -2.2379   14.1504    3.4010 C.2       1 <0>         0.4605
     27 O3         -3.0362   13.9538    4.2864 O.co2     1 <0>        -0.6352
     28 O4         -1.3198   15.1212    3.5284 O.co2     1 <0>        -0.7573
     29 C18        -1.2342    3.1443    0.0303 C.ar      1 <0>        -0.0482
     30 C19        -1.2173    1.7475    0.0173 C.ar      1 <0>        -0.0780
     31 C20        -0.0126    1.0758    0.0080 C.ar      1 <0>        -0.1259
     32 C21         1.1772    1.7823    0.0004 C.ar      1 <0>        -0.0614
     33 C22         1.1680    3.1659    0.0079 C.ar      1 <0>        -0.1232
     34 C23        -0.0292    3.8509    0.0226 C.ar      1 <0>        -0.0681
     35 C24         2.4893    1.0412   -0.0166 C.3       1 <0>        -0.1233
     36 H3         -9.1989    4.0311   -4.3871 H         1 <0>         0.0663
     37 H4         -7.7538    3.7050   -5.4030 H         1 <0>         0.0700
     38 H5         -8.2516    5.3978   -5.0664 H         1 <0>         0.0714
     39 H6         -8.8745    3.6782   -2.1355 H         1 <0>         0.1246
     40 H7         -7.4557    3.6941   -0.1231 H         1 <0>         0.1247
     41 H8         -4.1786    5.1289   -2.4450 H         1 <0>         0.1132
     42 H9         -5.5951    5.1052   -4.4590 H         1 <0>         0.1219
     43 H10        -4.0480    2.6015    0.9420 H         1 <0>         0.1189
     44 H11        -4.0619    2.6213   -0.8541 H         1 <0>         0.1185
     45 H12        -5.6533   10.9733    1.4737 H         1 <0>         0.1203
     46 H13        -4.5219    9.8035    2.2341 H         1 <0>         0.1003
     47 H14        -3.9892   12.2984    3.1576 H         1 <0>         0.4307
     48 H15        -1.3133   12.7802    2.0394 H         1 <0>         0.0720
     49 H16        -2.4446   13.9500    1.2789 H         1 <0>         0.0719
     50 H17        -2.1452    1.1949    0.0184 H         1 <0>         0.1307
     51 H18         0.0021   -0.0041    0.0020 H         1 <0>         0.1294
     52 H19         2.1004    3.7109    0.0019 H         1 <0>         0.1306
     53 H20        -0.0349    4.9308    0.0277 H         1 <0>         0.1366
     54 H21         3.3186    1.7639   -0.0206 H         1 <0>         0.0690
     55 H22         2.5447    0.4145   -0.9189 H         1 <0>         0.0735
     56 H23         2.5623    0.4043    0.8773 H         1 <0>         0.0739
@<TRIPOS>BOND
     1    1    2 1
     2    1   36 1
     3    1   37 1
     4    1   38 1
     5    2    7 ar
     6    2    3 ar
     7    3    4 ar
     8    3   39 1
     9    4    5 ar
    10    4   40 1
    11    5    6 ar
    12    5    8 1
    13    6    7 ar
    14    6   41 1
    15    7   42 1
    16    8    9 1
    17    8   13 1
    18    8   10 1
    19   10   11 1
    20   10   43 1
    21   10   44 1
    22   11   12 2
    23   11   29 1
    24   12   13 1
    25   13   14 1
    26   14   20 1
    27   14   15 2
    28   15   16 1
    29   16   17 2
    30   16   18 1
    31   18   19 1
    32   18   20 1
    33   18   21 1
    34   21   22 1
    35   21   45 1
    36   21   46 1
    37   22   23 2
    38   22   24 am
    39   24   25 1
    40   24   47 1
    41   25   26 1
    42   25   48 1
    43   25   49 1
    44   26   27 2
    45   26   28 1
    46   29   34 ar
    47   29   30 ar
    48   30   31 ar
    49   30   50 1
    50   31   32 ar
    51   31   51 1
    52   32   33 ar
    53   32   35 1
    54   33   34 ar
    55   33   52 1
    56   34   53 1
    57   35   54 1
    58   35   55 1
    59   35   56 1
@<TRIPOS>MOLECULE
ZINC35697949
   56    59     0     0     0
SMALL
USER_CHARGES

@<TRIPOS>ATOM
      1 C1          0.3277    1.1639    0.8940 C.3       1 <0>        -0.0917
      2 C2          0.2601   -0.2921    0.5110 C.2       1 <0>         0.3014
      3 C3         -0.9646   -0.9284    0.4462 C.2       1 <0>        -0.3904
      4 C4         -0.9803   -2.3897    0.0568 C.3       1 <0>         0.2602
      5 H1         -1.6031   -2.4935   -0.8318 H         1 <0>         0.0752
      6 N1          0.3324   -3.0285   -0.2270 N.pl3     1 <0>        -0.5129
      7 C5          0.5558   -4.3397   -0.5974 C.2       1 <0>         0.2334
      8 C6          1.8343   -4.7220   -0.8100 C.2       1 <0>        -0.3036
      9 S1          2.7285   -3.2158   -0.4838 S.3       1 <0>         0.1450
     10 C7          1.4295   -2.2223   -0.1058 C.2       1 <0>         0.3209
     11 N2          1.3734   -0.9509    0.2337 N.2       1 <0>        -0.5952
     12 C8         -0.5577   -5.2864   -0.7543 C.2       1 <0>        -0.4642
     13 C9         -0.3065   -6.5887   -0.9889 C.2       1 <0>         0.5022
     14 O1          0.9678   -7.0494   -0.9573 O.3       1 <0>        -0.7023
     15 N3         -1.3499   -7.4568   -1.2624 N.pl3     1 <0>        -0.7506
     16 C10        -1.0692   -8.8475   -1.6276 C.3       1 <0>         0.1776
     17 C11        -2.3569   -9.5412   -1.9908 C.ar      1 <0>        -0.0485
     18 C12        -3.1102  -10.1905   -1.0247 C.ar      1 <0>        -0.1580
     19 C13        -4.2857  -10.8158   -1.3951 C.ar      1 <0>         0.0931
     20 N4         -4.6920  -10.7998   -2.6495 N.ar      1 <0>        -0.4893
     21 C14        -4.0012  -10.1924   -3.5945 C.ar      1 <0>         0.0932
     22 C15        -2.8192   -9.5405   -3.2979 C.ar      1 <0>        -0.1561
     23 C16        -1.6388   -3.1600    1.1721 C.ar      1 <0>        -0.0323
     24 C17        -0.9578   -3.3805    2.3553 C.ar      1 <0>        -0.1263
     25 C18        -1.5590   -4.0868    3.3804 C.ar      1 <0>        -0.0842
     26 C19        -2.8423   -4.5746    3.2248 C.ar      1 <0>        -0.2081
     27 C20        -3.5276   -4.3548    2.0390 C.ar      1 <0>         0.1203
     28 C21        -2.9241   -3.6404    1.0139 C.ar      1 <0>        -0.1052
     29 O2         -4.7899   -4.8336    1.8835 O.3       1 <0>        -0.3186
     30 C22        -5.3502   -5.5548    2.9826 C.3       1 <0>         0.0305
     31 C23        -2.1518   -0.2432    0.7321 C.2       1 <0>         0.5340
     32 O3         -2.1157    0.9343    1.0443 O.2       1 <0>        -0.5499
     33 O4         -3.3376   -0.8876    0.6618 O.3       1 <0>        -0.3545
     34 C24        -4.5083   -0.1270    0.9664 C.3       1 <0>         0.0421
     35 H2          1.3667    1.4934    0.8877 H         1 <0>         0.0642
     36 H3         -0.2452    1.7546    0.1792 H         1 <0>         0.0866
     37 H4         -0.0895    1.2967    1.8922 H         1 <0>         0.0860
     38 H5          2.2153   -5.6896   -1.1014 H         1 <0>         0.2335
     39 H6         -1.5773   -4.9378   -0.6815 H         1 <0>         0.0892
     40 H7         -2.2668   -7.1442   -1.2121 H         1 <0>         0.3863
     41 H8         -0.3915   -8.8694   -2.4810 H         1 <0>         0.0673
     42 H9         -0.6068   -9.3587   -0.7832 H         1 <0>         0.0612
     43 H10        -2.7824  -10.2076    0.0042 H         1 <0>         0.1345
     44 H11        -4.8783  -11.3237   -0.6486 H         1 <0>         0.1535
     45 H12        -4.3656  -10.2008   -4.6111 H         1 <0>         0.1541
     46 H13        -2.2605   -9.0405   -4.0753 H         1 <0>         0.1359
     47 H14         0.0457   -3.0006    2.4786 H         1 <0>         0.1067
     48 H15        -1.0251   -4.2577    4.3035 H         1 <0>         0.1180
     49 H16        -3.3114   -5.1270    4.0256 H         1 <0>         0.1205
     50 H17        -3.4573   -3.4638    0.0915 H         1 <0>         0.1260
     51 H18        -6.3586   -5.8802    2.7273 H         1 <0>         0.0947
     52 H19        -4.7313   -6.4256    3.1990 H         1 <0>         0.0523
     53 H20        -5.3879   -4.9088    3.8597 H         1 <0>         0.0508
     54 H21        -4.4406    0.2513    1.9864 H         1 <0>         0.0505
     55 H22        -4.5884    0.7101    0.2730 H         1 <0>         0.0512
     56 H23        -5.3890   -0.7623    0.8723 H         1 <0>         0.0897
@<TRIPOS>BOND
     1    1    2 1
     2    1   35 1
     3    1   36 1
     4    1   37 1
     5    2   11 1
     6    2    3 2
     7    3    4 1
     8    3   31 1
     9    4    5 1
    10    4    6 1
    11    4   23 1
    12    6   10 1
    13    6    7 1
    14    7    8 2
    15    7   12 1
    16    8    9 1
    17    8   38 1
    18    9   10 1
    19   10   11 2
    20   12   13 2
    21   12   39 1
    22   13   14 1
    23   13   15 1
    24   15   16 1
    25   15   40 1
    26   16   17 1
    27   16   41 1
    28   16   42 1
    29   17   22 ar
    30   17   18 ar
    31   18   19 ar
    32   18   43 1
    33   19   20 ar
    34   19   44 1
    35   20   21 ar
    36   21   22 ar
    37   21   45 1
    38   22   46 1
    39   23   28 ar
    40   23   24 ar
    41   24   25 ar
    42   24   47 1
    43   25   26 ar
    44   25   48 1
    45   26   27 ar
    46   26   49 1
    47   27   28 ar
    48   27   29 1
    49   28   50 1
    50   29   30 1
    51   30   51 1
    52   30   52 1
    53   30   53 1
    54   31   32 2
    55   31   33 1
    56   33   34 1
    57   34   54 1
    58   34   55 1
    59   34   56 1
@<TRIPOS>MOLECULE
ZINC39722331
   50    53     0     0     0
SMALL
USER_CHARGES

@<TRIPOS>ATOM
      1 C1         -0.0187    1.5258    0.0104 C.3       1 <0>        -0.1486
      2 C2          0.0021   -0.0041    0.0020 C.3       1 <0>        -0.0524
      3 C3         -1.4117   -0.5257    0.0127 C.2       1 <0>        -0.0802
      4 C4         -2.1508   -0.8936   -1.0425 C.2       1 <0>        -0.1615
      5 C5         -3.5572   -1.3135   -0.7844 C.3       1 <0>        -0.1193
      6 H1         -4.2090   -0.4402   -0.8105 H         1 <0>         0.1339
      7 C6         -3.6006   -1.9554    0.6438 C.3       1 <0>         0.0994
      8 H2         -3.1463   -2.9457    0.6145 H         1 <0>         0.0998
      9 S1         -2.4650   -0.7948    1.4452 S.3       1 <0>        -0.1174
     10 N1         -4.9581   -2.0643    1.0386 N.2       1 <0>        -0.5206
     11 C7         -5.7607   -2.5794    0.1128 C.2       1 <0>         0.3425
     12 N2         -5.2433   -2.9989   -1.1043 N.am      1 <0>        -0.5682
     13 C8         -4.1406   -2.4034   -1.6468 C.2       1 <0>         0.5470
     14 O1         -3.6899   -2.7065   -2.7309 O.2       1 <0>        -0.4738
     15 C9         -5.8732   -4.1201   -1.8060 C.3       1 <0>         0.1260
     16 C10        -6.9480   -3.5979   -2.7243 C.2       1 <0>        -0.1875
     17 C11        -6.9246   -3.9003   -3.9986 C.2       1 <0>        -0.1540
     18 S2         -7.4870   -2.7295    0.4319 S.3       1 <0>         0.1210
     19 C12        -7.6827   -2.0662    2.1089 C.3       1 <0>        -0.0819
     20 C13        -9.1333   -2.1368    2.5109 C.2       1 <0>         0.3804
     21 N3         -9.4842   -1.6782    3.7406 N.am      1 <0>        -0.6487
     22 H3         -8.8042   -1.3179    4.3312 H         1 <0>         0.4149
     23 C14       -10.7737   -1.7189    4.1492 C.2       1 <0>         0.5574
     24 O2        -11.1020   -1.3112    5.2478 O.2       1 <0>        -0.5174
     25 C15       -11.7648   -2.2756    3.2119 C.ar      1 <0>        -0.1959
     26 C16       -13.1169   -2.3606    3.5382 C.ar      1 <0>        -0.0655
     27 C17       -14.0022   -2.8835    2.6391 C.ar      1 <0>        -0.0887
     28 C18       -13.5632   -3.3365    1.3881 C.ar      1 <0>        -0.0891
     29 C19       -12.2181   -3.2609    1.0434 C.ar      1 <0>        -0.0640
     30 C20       -11.3053   -2.7276    1.9555 C.ar      1 <0>         0.1260
     31 N4         -9.9843   -2.6278    1.6624 N.2       1 <0>        -0.4900
     32 C21       -14.5363   -3.8992    0.4283 C.2       1 <0>         0.5192
     33 O3        -15.7198   -3.9681    0.7273 O.co2     1 <0>        -0.6772
     34 O4        -14.1578   -4.2958   -0.6644 O.co2     1 <0>        -0.6753
     35 H4          1.0039    1.9031    0.0027 H         1 <0>         0.0641
     36 H5         -0.5459    1.8868   -0.8726 H         1 <0>         0.0592
     37 H6         -0.5289    1.8773    0.9072 H         1 <0>         0.0594
     38 H7          0.5123   -0.3556   -0.8948 H         1 <0>         0.0863
     39 H8          0.5293   -0.3651    0.8851 H         1 <0>         0.0835
     40 H9         -1.7428   -0.8858   -2.0424 H         1 <0>         0.1452
     41 H10        -5.1219   -4.6508   -2.3909 H         1 <0>         0.0990
     42 H11        -6.3156   -4.8012   -1.0791 H         1 <0>         0.1049
     43 H12        -7.7376   -2.9743   -2.3316 H         1 <0>         0.1235
     44 H13        -7.6949   -3.5261   -4.6567 H         1 <0>         0.1060
     45 H14        -6.1350   -4.5239   -4.3912 H         1 <0>         0.0985
     46 H15        -7.0838   -2.6543    2.8043 H         1 <0>         0.1301
     47 H16        -7.3498   -1.0285    2.1303 H         1 <0>         0.1295
     48 H17       -13.4641   -2.0141    4.5004 H         1 <0>         0.1330
     49 H18       -15.0495   -2.9485    2.8947 H         1 <0>         0.1402
     50 H19       -11.8825   -3.6115    0.0786 H         1 <0>         0.1473
@<TRIPOS>BOND
     1    1    2 1
     2    1   35 1
     3    1   36 1
     4    1   37 1
     5    2    3 1
     6    2   38 1
     7    2   39 1
     8    3    9 1
     9    3    4 2
    10    4    5 1
    11    4   40 1
    12    5    6 1
    13    5   13 1
    14    5    7 1
    15    7    8 1
    16    7    9 1
    17    7   10 1
    18   10   11 2
    19   11   12 1
    20   11   18 1
    21   12   13 am
    22   12   15 1
    23   13   14 2
    24   15   16 1
    25   15   41 1
    26   15   42 1
    27   16   17 2
    28   16   43 1
    29   17   44 1
    30   17   45 1
    31   18   19 1
    32   19   20 1
    33   19   46 1
    34   19   47 1
    35   20   31 2
    36   20   21 1
    37   21   22 1
    38   21   23 am
    39   23   24 2
    40   23   25 1
    41   25   30 ar
    42   25   26 ar
    43   26   27 ar
    44   26   48 1
    45   27   28 ar
    46   27   49 1
    47   28   29 ar
    48   28   32 1
    49   29   30 ar
    50   29   50 1
    51   30   31 1
    52   32   33 2
    53   32   34 1
@<TRIPOS>MOLECULE
ZINC40110562
   51    53     0     0     0
SMALL
USER_CHARGES

@<TRIPOS>ATOM
      1 C1         -6.6809   -1.0478    0.0405 C.3       1 <0>         0.0891
      2 N1         -7.1284   -2.0440   -0.9360 N.pl3     1 <0>        -1.0073
      3 C2         -7.2019   -3.4578   -0.5589 C.3       1 <0>         0.0923
      4 S1         -7.5510   -1.5721   -2.4660 S.o2      1 <0>         2.6943
      5 O1         -8.4308   -2.5678   -2.9697 O.2       1 <0>        -0.9549
      6 O2         -7.9194   -0.2023   -2.3812 O.2       1 <0>        -0.9560
      7 C3         -6.0936   -1.6414   -3.4538 C.ar      1 <0>        -0.6684
      8 C4         -5.2745   -0.5302   -3.5519 C.ar      1 <0>        -0.0356
      9 C5         -4.1322   -0.5776   -4.3234 C.ar      1 <0>        -0.0971
     10 C6         -3.8030   -1.7503   -5.0065 C.ar      1 <0>        -0.0763
     11 C7         -4.6341   -2.8679   -4.9031 C.ar      1 <0>        -0.0864
     12 C8         -5.7704   -2.8085   -4.1236 C.ar      1 <0>        -0.0378
     13 C9         -2.5803   -1.8084   -5.8359 C.2       1 <0>         0.4976
     14 O3         -1.9020   -0.8102   -5.9903 O.2       1 <0>        -0.4604
     15 C10        -2.1852   -3.0685   -6.4720 C.2       1 <0>        -0.5098
     16 C11        -2.1346   -3.3209   -7.8009 C.2       1 <0>         0.2678
     17 C12        -1.6864   -4.7135   -8.0139 C.2       1 <0>         0.5107
     18 O4         -1.5399   -5.2407   -9.0986 O.2       1 <0>        -0.5348
     19 N2         -1.4641   -5.3104   -6.8288 N.am      1 <0>        -0.6058
     20 C13        -1.7498   -4.3341   -5.7710 C.3       1 <0>         0.2621
     21 H1         -2.5513   -4.7026   -5.1307 H         1 <0>         0.0686
     22 C14        -0.5109   -4.0736   -4.9535 C.ar      1 <0>        -0.0392
     23 C15         0.6305   -3.5884   -5.5641 C.ar      1 <0>        -0.0392
     24 C16         1.7669   -3.3489   -4.8147 C.ar      1 <0>        -0.0980
     25 C17         1.7619   -3.5948   -3.4535 C.ar      1 <0>        -0.0887
     26 C18         0.6196   -4.0803   -2.8429 C.ar      1 <0>        -0.0975
     27 C19        -0.5179   -4.3145   -3.5923 C.ar      1 <0>        -0.1059
     28 Br1         3.3166   -3.2679   -2.4277 Br        1 <0>        -0.0772
     29 C20        -1.0108   -6.6892   -6.6298 C.3       1 <0>         0.1393
     30 C21         0.5104   -6.7528   -6.7815 C.3       1 <0>         0.0560
     31 O5          1.1274   -6.0899   -5.6761 O.3       1 <0>        -0.5507
     32 O6         -2.4451   -2.4391   -8.7787 O.3       1 <0>        -0.6483
     33 H2         -6.4483   -1.5424    0.9836 H         1 <0>         0.0812
     34 H3         -5.7899   -0.5451   -0.3355 H         1 <0>         0.0613
     35 H4         -7.4717   -0.3147    0.2001 H         1 <0>         0.0679
     36 H5         -8.1911   -3.6754   -0.1562 H         1 <0>         0.0597
     37 H6         -7.0227   -4.0778   -1.4373 H         1 <0>         0.0732
     38 H7         -6.4466   -3.6719    0.1972 H         1 <0>         0.0741
     39 H8         -5.5305    0.3761   -3.0234 H         1 <0>         0.1391
     40 H9         -3.4940    0.2903   -4.3994 H         1 <0>         0.1400
     41 H10        -4.3855   -3.7778   -5.4291 H         1 <0>         0.1448
     42 H11        -6.4117   -3.6734   -4.0392 H         1 <0>         0.1397
     43 H12         0.6344   -3.3968   -6.6270 H         1 <0>         0.1185
     44 H13         2.6587   -2.9702   -5.2919 H         1 <0>         0.1207
     45 H14         0.6153   -4.2723   -1.7801 H         1 <0>         0.1205
     46 H15        -1.4112   -4.6897   -3.1149 H         1 <0>         0.1199
     47 H16        -1.2905   -7.0230   -5.6306 H         1 <0>         0.0841
     48 H17        -1.4774   -7.3360   -7.3729 H         1 <0>         0.0884
     49 H18         0.8299   -7.7947   -6.8048 H         1 <0>         0.0482
     50 H19         0.8038   -6.2620   -7.7094 H         1 <0>         0.0483
     51 H20         2.0939   -6.0913   -5.7063 H         1 <0>         0.3679
@<TRIPOS>BOND
     1    1    2 1
     2    1   33 1
     3    1   34 1
     4    1   35 1
     5    2    3 1
     6    2    4 1
     7    3   36 1
     8    3   37 1
     9    3   38 1
    10    4    5 2
    11    4    6 2
    12    4    7 1
    13    7   12 ar
    14    7    8 ar
    15    8    9 ar
    16    8   39 1
    17    9   10 ar
    18    9   40 1
    19   10   11 ar
    20   10   13 1
    21   11   12 ar
    22   11   41 1
    23   12   42 1
    24   13   14 2
    25   13   15 1
    26   15   20 1
    27   15   16 2
    28   16   17 1
    29   16   32 1
    30   17   18 2
    31   17   19 am
    32   19   20 1
    33   19   29 1
    34   20   21 1
    35   20   22 1
    36   22   27 ar
    37   22   23 ar
    38   23   24 ar
    39   23   43 1
    40   24   25 ar
    41   24   44 1
    42   25   26 ar
    43   25   28 1
    44   26   27 ar
    45   26   45 1
    46   27   46 1
    47   29   30 1
    48   29   47 1
    49   29   48 1
    50   30   31 1
    51   30   49 1
    52   30   50 1
    53   31   51 1
@<TRIPOS>MOLECULE
ZINC40017015
   46    49     0     0     0
SMALL
USER_CHARGES

@<TRIPOS>ATOM
      1 C1          0.8980   -0.9409   -0.7317 C.3       1 <0>        -0.1482
      2 C2         -0.0144    0.0402    0.0072 C.3       1 <0>        -0.0827
      3 C3         -1.4236   -0.4938    0.0164 C.ar      1 <0>        -0.1027
      4 C4         -2.2895   -0.1734   -1.0133 C.ar      1 <0>        -0.0873
      5 C5         -3.5816   -0.6606   -1.0079 C.ar      1 <0>        -0.1297
      6 C6         -4.0112   -1.4740    0.0334 C.ar      1 <0>         0.1565
      7 C7         -3.1385   -1.7943    1.0659 C.ar      1 <0>        -0.1478
      8 C8         -1.8462   -1.3078    1.0514 C.ar      1 <0>        -0.0921
      9 N1         -5.3179   -1.9683    0.0423 N.pl3     1 <0>        -0.6081
     10 C9         -6.0160   -2.1095   -1.1519 C.2       1 <0>         0.3254
     11 N2         -5.5972   -1.9356   -2.3902 N.2       1 <0>        -0.3507
     12 N3         -6.4643   -2.1311   -3.4402 N.2       1 <0>        -0.2862
     13 C10        -7.7112   -2.4918   -3.2031 C.2       1 <0>         0.0345
     14 S1         -7.7177   -2.5824   -1.4191 S.3       1 <0>         0.0093
     15 S2         -9.0183   -2.8067   -4.3419 S.3       1 <0>         0.1467
     16 C11        -8.2631   -2.5216   -5.9664 C.3       1 <0>        -0.0696
     17 C12        -9.2878   -2.7601   -7.0455 C.2       1 <0>         0.4623
     18 N4        -10.4990   -3.1103   -6.6854 N.2       1 <0>        -0.6256
     19 C13       -11.4772   -3.3442   -7.5666 C.2       1 <0>         0.5657
     20 O1        -12.5931   -3.6680   -7.1970 O.2       1 <0>        -0.4697
     21 C14       -11.1577   -3.1949   -9.0222 C.2       1 <0>        -0.3478
     22 C15       -11.9700   -3.3750  -10.0744 C.2       1 <0>         0.1163
     23 C16       -11.3925   -3.1567  -11.4544 C.3       1 <0>        -0.1502
     24 H1        -11.4285   -4.0740  -12.0421 H         1 <0>         0.1612
     25 S3         -9.6566   -2.6932  -11.0631 S.3       1 <0>         0.0698
     26 C17        -9.7600   -2.7968   -9.2941 C.2       1 <0>         0.2842
     27 N5         -8.9191   -2.5998   -8.3067 N.2       1 <0>        -0.5591
     28 C18       -12.1041   -2.0350  -12.1659 C.2       1 <0>         0.5245
     29 O2        -11.6490   -0.9045  -12.1299 O.co2     1 <0>        -0.6401
     30 O3        -13.1349   -2.2580  -12.7776 O.co2     1 <0>        -0.6475
     31 C19       -13.4090   -3.7815   -9.8873 C.3       1 <0>        -0.1491
     32 H2          1.9172   -0.5546   -0.7383 H         1 <0>         0.0568
     33 H3          0.8786   -1.9063   -0.2261 H         1 <0>         0.0549
     34 H4          0.5481   -1.0606   -1.7570 H         1 <0>         0.0569
     35 H5          0.3354    0.1599    1.0326 H         1 <0>         0.0701
     36 H6          0.0050    1.0057   -0.4984 H         1 <0>         0.0713
     37 H7         -1.9549    0.4589   -1.8223 H         1 <0>         0.1263
     38 H8         -4.2575   -0.4094   -1.8119 H         1 <0>         0.1439
     39 H9         -3.4693   -2.4263    1.8768 H         1 <0>         0.1261
     40 H10        -1.1661   -1.5597    1.8517 H         1 <0>         0.1260
     41 H11        -5.7381   -2.2131    0.8816 H         1 <0>         0.4288
     42 H12        -7.9057   -1.4936   -6.0256 H         1 <0>         0.1355
     43 H13        -7.4258   -3.2059   -6.1029 H         1 <0>         0.1348
     44 H14       -13.6218   -3.8853   -8.8233 H         1 <0>         0.1088
     45 H15       -14.0604   -3.0196  -10.3154 H         1 <0>         0.1040
     46 H16       -13.5857   -4.7335  -10.3878 H         1 <0>         0.0934
@<TRIPOS>BOND
     1    1    2 1
     2    1   32 1
     3    1   33 1
     4    1   34 1
     5    2    3 1
     6    2   35 1
     7    2   36 1
     8    3    8 ar
     9    3    4 ar
    10    4    5 ar
    11    4   37 1
    12    5    6 ar
    13    5   38 1
    14    6    7 ar
    15    6    9 1
    16    7    8 ar
    17    7   39 1
    18    8   40 1
    19    9   10 1
    20    9   41 1
    21   10   14 1
    22   10   11 2
    23   11   12 1
    24   12   13 2
    25   13   14 1
    26   13   15 1
    27   15   16 1
    28   16   17 1
    29   16   42 1
    30   16   43 1
    31   17   27 1
    32   17   18 2
    33   18   19 1
    34   19   20 2
    35   19   21 1
    36   21   26 1
    37   21   22 2
    38   22   23 1
    39   22   31 1
    40   23   24 1
    41   23   25 1
    42   23   28 1
    43   25   26 1
    44   26   27 2
    45   28   29 2
    46   28   30 1
    47   31   44 1
    48   31   45 1
    49   31   46 1
@<TRIPOS>MOLECULE
ZINC28067939
   54    58     0     0     0
SMALL
USER_CHARGES
4-[[2-[(5R)-4-oxo-2-[(5R)-3-phenyl-5-(2-thienyl)-4,5-dihydropyrazol-1-yl]thiazol-5-yl]acetyl]amino]benzoic acid
@<TRIPOS>ATOM
      1 C1         -5.8391   11.0591    8.2450 C.ar      1 <0>        -0.0945
      2 C2         -5.3215   10.1185    7.3722 C.ar      1 <0>        -0.1211
      3 C3         -4.6938   10.5212    6.2119 C.ar      1 <0>        -0.0718
      4 C4         -4.5817   11.8824    5.9187 C.ar      1 <0>        -0.0447
      5 C5         -5.1019   12.8266    6.8071 C.ar      1 <0>        -0.0834
      6 C6         -5.7313   12.4091    7.9613 C.ar      1 <0>        -0.1235
      7 C7         -3.9119   12.3208    4.6801 C.2       1 <0>         0.1654
      8 N1         -3.3940   11.5378    3.7980 N.2       1 <0>        -0.2289
      9 N2         -2.8188   12.2008    2.7158 N.pl3     1 <0>        -0.3924
     10 C8         -2.9736   13.6513    2.9096 C.3       1 <0>         0.2050
     11 H1         -1.9999   14.1625    2.8875 H         1 <0>         0.1315
     12 C9         -3.7270   13.7586    4.2502 C.3       1 <0>        -0.1279
     13 C10        -3.7914   14.2509    1.7949 C.2       1 <0>        -0.1735
     14 C11        -3.6314   15.4392    1.1627 C.2       1 <0>        -0.1195
     15 C12        -4.5120   15.7866    0.1555 C.2       1 <0>        -0.1582
     16 C13        -5.5096   14.9287   -0.1703 C.2       1 <0>        -0.1629
     17 S1         -5.2177   13.5771    0.9589 S.3       1 <0>         0.0543
     18 C14        -2.2064   11.6025    1.6524 C.2       1 <0>         0.5388
     19 N3         -1.6439   12.1806    0.5989 N.2       1 <0>        -0.6710
     20 C15        -1.0764   11.5323   -0.3811 C.2       1 <0>         0.5428
     21 O1         -0.5711   12.1002   -1.3299 O.2       1 <0>        -0.4604
     22 C16        -1.0907   10.0140   -0.2533 C.3       1 <0>        -0.1367
     23 H2         -1.4198    9.5392   -1.1894 H         1 <0>         0.1638
     24 S2         -1.9748    9.8542    1.3504 S.3       1 <0>        -0.0465
     25 C17         0.3279    9.4473   -0.1680 C.3       1 <0>        -0.1199
     26 C18         0.2632    7.9454   -0.0614 C.2       1 <0>         0.5105
     27 O2         -0.8116    7.3837   -0.0544 O.2       1 <0>        -0.5137
     28 N4          1.3999    7.2265    0.0261 N.am      1 <0>        -0.6752
     29 C19         1.3451    5.8335    0.0283 C.ar      1 <0>         0.1303
     30 C20         0.2839    5.1816    0.6489 C.ar      1 <0>        -0.1349
     31 C21         0.2266    3.8063    0.6530 C.ar      1 <0>        -0.0709
     32 C22         1.2363    3.0644    0.0328 C.ar      1 <0>        -0.1238
     33 C23         2.3038    3.7227   -0.5851 C.ar      1 <0>        -0.0624
     34 C24         2.3521    5.0983   -0.5896 C.ar      1 <0>        -0.1602
     35 C25         1.1787    1.5909    0.0357 C.2       1 <0>         0.4891
     36 O3          0.2529    1.0202    0.5775 O.co2     1 <0>        -0.6319
     37 O4          2.1528    0.8774   -0.5626 O.co2     1 <0>        -0.7569
     38 H3         -6.3293   10.7381    9.1522 H         1 <0>         0.1281
     39 H4         -5.4089    9.0664    7.6001 H         1 <0>         0.1321
     40 H5         -4.2896    9.7860    5.5318 H         1 <0>         0.1366
     41 H6         -5.0148   13.8807    6.5890 H         1 <0>         0.1305
     42 H7         -6.1370   13.1379    8.6474 H         1 <0>         0.1305
     43 H8         -4.7111   14.2366    4.1361 H         1 <0>         0.1217
     44 H9         -3.1440   14.2970    5.0119 H         1 <0>         0.1251
     45 H10        -2.8276   16.1045    1.4415 H         1 <0>         0.1355
     46 H11        -4.4070   16.7277   -0.3639 H         1 <0>         0.1367
     47 H12        -6.2790   15.0338   -0.9209 H         1 <0>         0.1871
     48 H13         0.8894    9.7270   -1.0716 H         1 <0>         0.1242
     49 H14         0.8335    9.8565    0.7191 H         1 <0>         0.1033
     50 H15         2.3708    7.7389    0.0958 H         1 <0>         0.4302
     51 H16        -0.4955    5.7553    1.1281 H         1 <0>         0.1320
     52 H17        -0.5971    3.3010    1.1352 H         1 <0>         0.1290
     53 H18         3.0878    3.1526   -1.0613 H         1 <0>         0.1338
     54 H19         3.1747    5.6075   -1.0696 H         1 <0>         0.1186
@<TRIPOS>BOND
     1    1    6 ar
     2    1    2 ar
     3    1   38 1
     4    2    3 ar
     5    2   39 1
     6    3    4 ar
     7    3   40 1
     8    4    5 ar
     9    4    7 1
    10    5    6 ar
    11    5   41 1
    12    6   42 1
    13    7   12 1
    14    7    8 2
    15    8    9 1
    16    9   10 1
    17    9   18 1
    18   10   11 1
    19   10   12 1
    20   10   13 1
    21   12   43 1
    22   12   44 1
    23   13   17 1
    24   13   14 2
    25   14   15 1
    26   14   45 1
    27   15   16 2
    28   15   46 1
    29   16   17 1
    30   16   47 1
    31   18   24 1
    32   18   19 2
    33   19   20 1
    34   20   21 2
    35   20   22 1
    36   22   23 1
    37   22   24 1
    38   22   25 1
    39   25   26 1
    40   25   48 1
    41   25   49 1
    42   26   27 2
    43   26   28 am
    44   28   29 1
    45   28   50 1
    46   29   34 ar
    47   29   30 ar
    48   30   31 ar
    49   30   51 1
    50   31   32 ar
    51   31   52 1
    52   32   33 ar
    53   32   35 1
    54   33   34 ar
    55   33   53 1
    56   34   54 1
    57   35   36 2
    58   35   37 1
@<TRIPOS>MOLECULE
ZINC38693310
   58    61     0     0     0
SMALL
USER_CHARGES

@<TRIPOS>ATOM
      1 C1          2.0259   -4.9697   -2.0757 C.3       1 <0>        -0.1388
      2 C2          1.2995   -3.9720   -1.1713 C.3       1 <0>        -0.1413
      3 C3         -0.1664   -4.3175   -1.1179 C.2       1 <0>         0.5072
      4 O1         -0.5886   -5.2680   -1.7418 O.2       1 <0>        -0.5140
      5 N1         -1.0083   -3.5701   -0.3769 N.am      1 <0>        -0.6763
      6 C4         -2.3828   -3.8305   -0.4034 C.ar      1 <0>         0.1732
      7 C5         -3.2911   -2.7835   -0.3182 C.ar      1 <0>        -0.1692
      8 C6         -4.6473   -3.0438   -0.3447 C.ar      1 <0>        -0.0050
      9 C7         -5.1009   -4.3453   -0.4559 C.ar      1 <0>        -0.6264
     10 C8         -4.1990   -5.3902   -0.5405 C.ar      1 <0>        -0.0065
     11 C9         -2.8416   -5.1360   -0.5208 C.ar      1 <0>        -0.1453
     12 S1         -6.8318   -4.6732   -0.4893 S.o2      1 <0>         2.6040
     13 O2         -6.9997   -6.0141   -0.0500 O.2       1 <0>        -1.0302
     14 O3         -7.4655   -3.5759    0.1539 O.2       1 <0>        -1.0292
     15 N2         -7.3075   -4.6314   -2.0749 N.2       1 <0>        -1.0837
     16 C10        -8.6444   -4.8589   -2.4091 C.ar      1 <0>         0.3102
     17 C11        -9.5788   -5.1148   -1.4124 C.ar      1 <0>        -0.2752
     18 C12       -10.8990   -5.3411   -1.7438 C.ar      1 <0>        -0.0381
     19 C13       -11.3043   -5.3145   -3.0687 C.ar      1 <0>        -0.2166
     20 C14       -10.3755   -5.0560   -4.0657 C.ar      1 <0>         0.2094
     21 C15        -9.0457   -4.8245   -3.7362 C.ar      1 <0>        -0.2397
     22 N3        -10.7599   -5.0142   -5.4105 N.pl3     1 <0>        -0.9320
     23 C16       -12.0791   -5.5385   -5.7891 C.3       1 <0>         0.1086
     24 C17       -13.1011   -5.0154   -4.7713 C.3       1 <0>        -0.1274
     25 C18       -12.7528   -5.5720   -3.3911 C.3       1 <0>        -0.0549
     26 S2         -9.7445   -4.3836   -6.5566 S.o2      1 <0>         2.6845
     27 O4        -10.5488   -4.0770   -7.6873 O.2       1 <0>        -0.9618
     28 O5         -8.9485   -3.4063   -5.9005 O.2       1 <0>        -0.9296
     29 C19        -8.6515   -5.6741   -7.0511 C.ar      1 <0>        -0.6753
     30 C20        -7.4561   -5.8615   -6.3826 C.ar      1 <0>        -0.0093
     31 C21        -6.5986   -6.8739   -6.7706 C.ar      1 <0>        -0.1369
     32 C22        -6.9366   -7.6993   -7.8267 C.ar      1 <0>        -0.0664
     33 C23        -8.1324   -7.5124   -8.4946 C.ar      1 <0>        -0.1478
     34 C24        -8.9919   -6.5027   -8.1039 C.ar      1 <0>        -0.0243
     35 H1          3.0862   -4.7198   -2.1144 H         1 <0>         0.0623
     36 H2          1.9043   -5.9768   -1.6771 H         1 <0>         0.0628
     37 H3          1.6048   -4.9230   -3.0800 H         1 <0>         0.0634
     38 H4          1.7206   -4.0187   -0.1670 H         1 <0>         0.0953
     39 H5          1.4212   -2.9649   -1.5699 H         1 <0>         0.0962
     40 H6         -0.6613   -2.8517    0.1749 H         1 <0>         0.4107
     41 H7         -2.9375   -1.7667   -0.2310 H         1 <0>         0.1289
     42 H8         -5.3541   -2.2300   -0.2781 H         1 <0>         0.1414
     43 H9         -4.5565   -6.4056   -0.6269 H         1 <0>         0.1395
     44 H10        -2.1377   -5.9520   -0.5921 H         1 <0>         0.1409
     45 H11        -9.2711   -5.1369   -0.3775 H         1 <0>         0.0996
     46 H12       -11.6210   -5.5406   -0.9657 H         1 <0>         0.1072
     47 H13        -8.3239   -4.6220   -4.5137 H         1 <0>         0.1334
     48 H14       -12.3417   -5.1906   -6.7882 H         1 <0>         0.0961
     49 H15       -12.0628   -6.6282   -5.7693 H         1 <0>         0.0732
     50 H16       -13.0660   -3.9263   -4.7453 H         1 <0>         0.0706
     51 H17       -14.1008   -5.3437   -5.0559 H         1 <0>         0.0753
     52 H18       -12.9387   -6.6459   -3.3790 H         1 <0>         0.0593
     53 H19       -13.3796   -5.0905   -2.6404 H         1 <0>         0.0650
     54 H20        -7.1920   -5.2167   -5.5575 H         1 <0>         0.1549
     55 H21        -5.6644   -7.0199   -6.2487 H         1 <0>         0.1348
     56 H22        -6.2664   -8.4898   -8.1302 H         1 <0>         0.1279
     57 H23        -8.3964   -8.1570   -9.3200 H         1 <0>         0.1290
     58 H24        -9.9278   -6.3591   -8.6234 H         1 <0>         0.1360
@<TRIPOS>BOND
     1    1    2 1
     2    1   35 1
     3    1   36 1
     4    1   37 1
     5    2    3 1
     6    2   38 1
     7    2   39 1
     8    3    4 2
     9    3    5 am
    10    5    6 1
    11    5   40 1
    12    6   11 ar
    13    6    7 ar
    14    7    8 ar
    15    7   41 1
    16    8    9 ar
    17    8   42 1
    18    9   10 ar
    19    9   12 1
    20   10   11 ar
    21   10   43 1
    22   11   44 1
    23   12   13 2
    24   12   14 2
    25   12   15 1
    26   15   16 1
    27   16   21 ar
    28   16   17 ar
    29   17   18 ar
    30   17   45 1
    31   18   19 ar
    32   18   46 1
    33   19   25 1
    34   19   20 ar
    35   20   21 ar
    36   20   22 1
    37   21   47 1
    38   22   23 1
    39   22   26 1
    40   23   24 1
    41   23   48 1
    42   23   49 1
    43   24   25 1
    44   24   50 1
    45   24   51 1
    46   25   52 1
    47   25   53 1
    48   26   27 2
    49   26   28 2
    50   26   29 1
    51   29   34 ar
    52   29   30 ar
    53   30   31 ar
    54   30   54 1
    55   31   32 ar
    56   31   55 1
    57   32   33 ar
    58   32   56 1
    59   33   34 ar
    60   33   57 1
    61   34   58 1
@<TRIPOS>MOLECULE
ZINC39709789
   53    57     0     0     0
SMALL
USER_CHARGES

@<TRIPOS>ATOM
      1 C1          0.1610    1.5379   -0.3891 C.ar      1 <0>        -0.1254
      2 C2          0.9912    1.4400   -1.4907 C.ar      1 <0>        -0.1041
      3 C3          2.1639    0.7150   -1.4111 C.ar      1 <0>        -0.1313
      4 C4          2.5092    0.0838   -0.2229 C.ar      1 <0>         0.2027
      5 C5          1.6729    0.1842    0.8818 C.ar      1 <0>        -0.1236
      6 C6          0.5016    0.9108    0.7953 C.ar      1 <0>        -0.1025
      7 N1          3.6943   -0.6507   -0.1391 N.pl3     1 <0>        -0.6827
      8 C7          3.8184   -2.1102    0.0511 C.3       1 <0>         0.3075
      9 H1          3.7639   -2.3626    1.1101 H         1 <0>         0.0969
     10 N2          5.1625   -2.4372   -0.4928 N.3       1 <0>        -0.4760
     11 N3          5.9759   -1.2825   -0.0800 N.3       1 <0>        -0.4756
     12 C8          5.0671   -0.1232   -0.2294 C.3       1 <0>         0.2740
     13 H2          5.2214    0.3527   -1.1978 H         1 <0>         0.0879
     14 S1          5.3634    1.0700    1.1044 S.3       1 <0>        -0.1050
     15 C9          5.1073    0.1067    2.6200 C.3       1 <0>        -0.0461
     16 C10         5.3256    0.9912    3.8204 C.2       1 <0>         0.3780
     17 N4          5.1840    0.4462    5.0567 N.am      1 <0>        -0.6509
     18 H3          4.9479   -0.4905    5.1447 H         1 <0>         0.4114
     19 C11         5.3696    1.1979    6.1666 C.2       1 <0>         0.5565
     20 O1          5.2464    0.7225    7.2800 O.2       1 <0>        -0.5229
     21 C12         5.7273    2.6141    5.9744 C.ar      1 <0>        -0.1992
     22 C13         5.9399    3.4704    7.0531 C.ar      1 <0>        -0.0665
     23 C14         6.2704    4.7767    6.8298 C.ar      1 <0>        -0.0915
     24 C15         6.3981    5.2660    5.5232 C.ar      1 <0>        -0.0901
     25 C16         6.1897    4.4279    4.4333 C.ar      1 <0>        -0.0647
     26 C17         5.8519    3.0907    4.6511 C.ar      1 <0>         0.1278
     27 N5          5.6445    2.2336    3.6200 N.2       1 <0>        -0.4788
     28 C18         6.7564    6.6828    5.3017 C.2       1 <0>         0.5196
     29 O2          6.9402    7.4234    6.2569 O.co2     1 <0>        -0.6786
     30 O3          6.8690    7.1141    4.1633 O.co2     1 <0>        -0.6759
     31 C19         2.7282   -2.8463   -0.7301 C.3       1 <0>        -0.0454
     32 C20         2.8031   -4.3210   -0.4288 C.2       1 <0>        -0.1330
     33 C21         2.1757   -5.0264    0.5439 C.2       1 <0>        -0.1566
     34 C22         2.3957   -6.3881    0.6325 C.2       1 <0>        -0.1549
     35 C23         3.2324   -6.9779   -0.2560 C.2       1 <0>        -0.1781
     36 S2          3.7350   -5.5935   -1.2651 S.3       1 <0>         0.0500
     37 H4         -0.7533    2.1092   -0.4526 H         1 <0>         0.1223
     38 H5          0.7220    1.9307   -2.4143 H         1 <0>         0.1228
     39 H6          2.8117    0.6386   -2.2719 H         1 <0>         0.1168
     40 H7          1.9382   -0.3056    1.8070 H         1 <0>         0.1179
     41 H8         -0.1490    0.9893    1.6538 H         1 <0>         0.1236
     42 H9          5.1355   -2.5196   -1.4981 H         1 <0>         0.3174
     43 H10         6.7871   -1.1816   -0.6716 H         1 <0>         0.3600
     44 H11         4.0892   -0.2823    2.6356 H         1 <0>         0.1027
     45 H12         5.8136   -0.7231    2.6468 H         1 <0>         0.1183
     46 H13         5.8432    3.1019    8.0637 H         1 <0>         0.1315
     47 H14         6.4343    5.4383    7.6676 H         1 <0>         0.1390
     48 H15         6.2881    4.8080    3.4272 H         1 <0>         0.1460
     49 H16         1.7503   -2.4647   -0.4366 H         1 <0>         0.1004
     50 H17         2.8753   -2.6858   -1.7982 H         1 <0>         0.0827
     51 H18         1.5140   -4.5318    1.2396 H         1 <0>         0.1304
     52 H19         1.9086   -6.9734    1.3983 H         1 <0>         0.1317
     53 H20         3.5178   -8.0165   -0.3355 H         1 <0>         0.1834
@<TRIPOS>BOND
     1    1    6 ar
     2    1    2 ar
     3    1   37 1
     4    2    3 ar
     5    2   38 1
     6    3    4 ar
     7    3   39 1
     8    4    5 ar
     9    4    7 1
    10    5    6 ar
    11    5   40 1
    12    6   41 1
    13    7   12 1
    14    7    8 1
    15    8    9 1
    16    8   10 1
    17    8   31 1
    18   10   11 1
    19   10   42 1
    20   11   12 1
    21   11   43 1
    22   12   13 1
    23   12   14 1
    24   14   15 1
    25   15   16 1
    26   15   44 1
    27   15   45 1
    28   16   27 2
    29   16   17 1
    30   17   18 1
    31   17   19 am
    32   19   20 2
    33   19   21 1
    34   21   26 ar
    35   21   22 ar
    36   22   23 ar
    37   22   46 1
    38   23   24 ar
    39   23   47 1
    40   24   25 ar
    41   24   28 1
    42   25   26 ar
    43   25   48 1
    44   26   27 1
    45   28   29 2
    46   28   30 1
    47   31   32 1
    48   31   49 1
    49   31   50 1
    50   32   36 1
    51   32   33 2
    52   33   34 1
    53   33   51 1
    54   34   35 2
    55   34   52 1
    56   35   36 1
    57   35   53 1
@<TRIPOS>MOLECULE
ZINC39732282
   64    67     0     0     0
SMALL
USER_CHARGES

@<TRIPOS>ATOM
      1 C1          0.4738    0.4049    0.0886 C.3       1 <0>        -0.1535
      2 C2          0.1617   -1.0927    0.0619 C.3       1 <0>         0.0577
      3 O1         -1.2544   -1.2840    0.0538 O.3       1 <0>        -0.3538
      4 C3         -1.6981   -2.5507    0.0306 C.2       1 <0>         0.4654
      5 O2         -0.9102   -3.4666    0.0177 O.2       1 <0>        -0.4782
      6 C4         -3.1789   -2.8304    0.0208 C.3       1 <0>        -0.0587
      7 H1         -3.6288   -2.3946    0.9129 H         1 <0>         0.1400
      8 C5         -3.8084   -2.1768   -1.2337 C.3       1 <0>         0.1761
      9 H2         -4.2617   -1.2139   -0.9983 H         1 <0>         0.1386
     10 S1         -5.0854   -3.4533   -1.6039 S.3       1 <0>        -0.0686
     11 C6         -4.3354   -4.8110   -0.7397 C.2       1 <0>        -0.0981
     12 C7         -3.3988   -4.3258    0.0373 C.2       1 <0>        -0.1463
     13 C8         -2.5777   -5.2240    0.9710 C.3       1 <0>        -0.0498
     14 C9         -3.5368   -5.8402    1.9880 C.3       1 <0>        -0.1162
     15 C10        -4.2566   -7.0431    1.4280 C.3       1 <0>        -0.1197
     16 C11        -5.3277   -6.7502    0.4017 C.3       1 <0>        -0.1113
     17 C12        -4.6938   -6.2746   -0.9067 C.3       1 <0>        -0.0463
     18 N1         -2.8357   -2.0559   -2.3225 N.am      1 <0>        -0.7227
     19 C13        -3.1843   -2.3980   -3.5786 C.2       1 <0>         0.5358
     20 O3         -4.3033   -2.8061   -3.8076 O.2       1 <0>        -0.4727
     21 C14        -2.1838   -2.2736   -4.6986 C.3       1 <0>        -0.1130
     22 H3         -1.5493   -1.4047   -4.5241 H         1 <0>         0.1137
     23 C15        -1.3186   -3.5344   -4.7520 C.3       1 <0>        -0.1402
     24 S2         -3.0611   -2.0751   -6.2739 S.3       1 <0>         0.0554
     25 C16        -1.7751   -1.7972   -7.4459 C.2       1 <0>         0.0640
     26 N2         -0.4878   -1.7577   -7.1949 N.2       1 <0>        -0.2458
     27 N3          0.1719   -1.5355   -8.2762 N.2       1 <0>        -0.3399
     28 C17        -0.6610   -1.4184   -9.2935 C.2       1 <0>         0.4457
     29 N4         -1.9315   -1.5886   -8.7868 N.pl3     1 <0>        -0.4359
     30 C18        -3.0171   -1.5248   -9.6158 C.2       1 <0>         0.1331
     31 C19        -2.8240   -1.2961  -10.9336 C.2       1 <0>        -0.2164
     32 C20        -1.5105   -1.1289  -11.4227 C.2       1 <0>         0.4547
     33 O4         -1.3077   -0.8993  -12.7419 O.3       1 <0>        -0.6739
     34 N5         -0.4816   -1.1886  -10.6029 N.2       1 <0>        -0.5754
     35 C21        -4.4090   -1.7073   -9.0678 C.3       1 <0>        -0.0585
     36 C22        -4.8533   -0.4225   -8.3658 C.3       1 <0>        -0.1451
     37 C23        -5.3717   -2.0208  -10.2149 C.3       1 <0>        -0.1426
     38 H4          1.5539    0.5509    0.0947 H         1 <0>         0.0818
     39 H5          0.0479    0.8806   -0.7949 H         1 <0>         0.0697
     40 H6          0.0418    0.8502    0.9848 H         1 <0>         0.0665
     41 H7          0.5936   -1.5379   -0.8344 H         1 <0>         0.0719
     42 H8          0.5875   -1.5684    0.9453 H         1 <0>         0.0694
     43 H9         -2.0947   -6.0126    0.3941 H         1 <0>         0.0763
     44 H10        -1.8244   -4.6290    1.4874 H         1 <0>         0.0756
     45 H11        -2.9721   -6.1435    2.8696 H         1 <0>         0.0639
     46 H12        -4.2726   -5.0911    2.2806 H         1 <0>         0.0615
     47 H13        -3.5170   -7.7002    0.9706 H         1 <0>         0.0586
     48 H14        -4.7168   -7.5811    2.2567 H         1 <0>         0.0578
     49 H15        -5.9056   -7.6554    0.2154 H         1 <0>         0.0699
     50 H16        -5.9913   -5.9748    0.7845 H         1 <0>         0.0664
     51 H17        -5.4061   -6.3901   -1.7237 H         1 <0>         0.0802
     52 H18        -3.7944   -6.8543   -1.1143 H         1 <0>         0.0843
     53 H19        -1.9408   -1.7295   -2.1393 H         1 <0>         0.4041
     54 H20        -0.5949   -3.4444   -5.5621 H         1 <0>         0.0904
     55 H21        -0.7915   -3.6537   -3.8055 H         1 <0>         0.0606
     56 H22        -1.9532   -4.4033   -4.9266 H         1 <0>         0.0695
     57 H23        -3.6670   -1.2421  -11.6065 H         1 <0>         0.1487
     58 H24        -4.4134   -2.5313   -8.3543 H         1 <0>         0.0926
     59 H25        -4.9491    0.3779   -9.0995 H         1 <0>         0.0586
     60 H26        -5.8152   -0.5876   -7.8805 H         1 <0>         0.0674
     61 H27        -4.1120   -0.1424   -7.6174 H         1 <0>         0.0645
     62 H28        -4.9952   -2.8714  -10.7830 H         1 <0>         0.0627
     63 H29        -6.3543   -2.2613   -9.8090 H         1 <0>         0.0648
     64 H30        -5.4514   -1.1531  -10.8697 H         1 <0>         0.0648
@<TRIPOS>BOND
     1    1    2 1
     2    1   38 1
     3    1   39 1
     4    1   40 1
     5    2    3 1
     6    2   41 1
     7    2   42 1
     8    3    4 1
     9    4    5 2
    10    4    6 1
    11    6    7 1
    12    6   12 1
    13    6    8 1
    14    8    9 1
    15    8   10 1
    16    8   18 1
    17   10   11 1
    18   11   17 1
    19   11   12 2
    20   12   13 1
    21   13   14 1
    22   13   43 1
    23   13   44 1
    24   14   15 1
    25   14   45 1
    26   14   46 1
    27   15   16 1
    28   15   47 1
    29   15   48 1
    30   16   17 1
    31   16   49 1
    32   16   50 1
    33   17   51 1
    34   17   52 1
    35   18   19 am
    36   18   53 1
    37   19   20 2
    38   19   21 1
    39   21   22 1
    40   21   23 1
    41   21   24 1
    42   23   54 1
    43   23   55 1
    44   23   56 1
    45   24   25 1
    46   25   29 1
    47   25   26 2
    48   26   27 1
    49   27   28 2
    50   28   34 1
    51   28   29 1
    52   29   30 1
    53   30   31 2
    54   30   35 1
    55   31   32 1
    56   31   57 1
    57   32   33 1
    58   32   34 2
    59   35   36 1
    60   35   37 1
    61   35   58 1
    62   36   59 1
    63   36   60 1
    64   36   61 1
    65   37   62 1
    66   37   63 1
    67   37   64 1
@<TRIPOS>MOLECULE
ZINC21298629
   58    62     0     0     0
SMALL
USER_CHARGES

@<TRIPOS>ATOM
      1 C1          2.8087    3.7315   -2.8832 C.3       1 <0>         0.0302
      2 O1          2.5225    2.6245   -2.0261 O.3       1 <0>        -0.3151
      3 C2          2.5189    1.3887   -2.5939 C.ar      1 <0>         0.0974
      4 C3          2.7907    1.2452   -3.9463 C.ar      1 <0>        -0.2054
      5 C4          2.7867   -0.0102   -4.5244 C.ar      1 <0>        -0.0542
      6 C5          2.5120   -1.1275   -3.7579 C.ar      1 <0>        -0.0439
      7 C6          2.2392   -0.9925   -2.4053 C.ar      1 <0>         0.1124
      8 C7          2.2483    0.2676   -1.8187 C.ar      1 <0>         0.0350
      9 O2          1.9865    0.4038   -0.4902 O.3       1 <0>        -0.3229
     10 C8          0.6206    0.5905   -0.1139 C.3       1 <0>         0.0389
     11 O3          1.9681   -2.0921   -1.6523 O.3       1 <0>        -0.3230
     12 C9          3.0783   -2.7424   -1.0306 C.3       1 <0>         0.0465
     13 C10         2.5085   -2.4938   -4.3936 C.3       1 <0>         0.1441
     14 C11         1.6111   -2.4823   -5.6043 C.2       1 <0>        -0.4566
     15 C12         0.2975   -2.9897   -5.5191 C.2       1 <0>         0.4232
     16 O4         -0.1405   -3.4450   -4.4751 O.2       1 <0>        -0.5397
     17 C13        -0.5267   -2.9472   -6.7442 C.ar      1 <0>        -0.2085
     18 C14        -1.8355   -3.4252   -6.7547 C.ar      1 <0>        -0.0419
     19 C15        -2.5713   -3.3671   -7.9184 C.ar      1 <0>        -0.1704
     20 C16        -2.0137   -2.8368   -9.0725 C.ar      1 <0>        -0.0794
     21 C17        -0.7198   -2.3609   -9.0741 C.ar      1 <0>        -0.1582
     22 C18         0.0382   -2.4102   -7.9107 C.ar      1 <0>         0.1619
     23 O5          1.3065   -1.9490   -7.8896 O.3       1 <0>        -0.2750
     24 C19         2.0601   -1.9782   -6.7833 C.2       1 <0>         0.4496
     25 O6          3.3178   -1.4919   -6.8430 O.3       1 <0>        -0.6300
     26 C20         3.9102   -2.8574   -4.8107 C.2       1 <0>        -0.2510
     27 C21         5.0097   -2.1192   -4.3242 C.2       1 <0>         0.4361
     28 O7          4.8554   -1.1790   -3.5619 O.2       1 <0>        -0.4601
     29 C22         6.3552   -2.5305   -4.7742 C.ar      1 <0>        -0.2067
     30 C23         7.4995   -1.8608   -4.3455 C.ar      1 <0>        -0.0326
     31 C24         8.7365   -2.2763   -4.7883 C.ar      1 <0>        -0.1572
     32 C25         8.8432   -3.3536   -5.6555 C.ar      1 <0>        -0.0692
     33 C26         7.7181   -4.0239   -6.0863 C.ar      1 <0>        -0.1467
     34 C27         6.4619   -3.6206   -5.6508 C.ar      1 <0>         0.1638
     35 O8          5.3473   -4.2630   -6.0592 O.3       1 <0>        -0.2655
     36 C28         4.1237   -3.9015   -5.6533 C.2       1 <0>         0.3400
     37 O9          3.0594   -4.5992   -6.1031 O.3       1 <0>        -0.3927
     38 H1          3.7998    3.6066   -3.3193 H         1 <0>         0.0515
     39 H2          2.0648    3.7769   -3.6786 H         1 <0>         0.0499
     40 H3          2.7797    4.6553   -2.3055 H         1 <0>         0.0915
     41 H4          3.0055    2.1156   -4.5485 H         1 <0>         0.1190
     42 H5          2.9985   -0.1186   -5.5779 H         1 <0>         0.1604
     43 H6          0.2351    1.4959   -0.5826 H         1 <0>         0.0380
     44 H7          0.0330   -0.2670   -0.4418 H         1 <0>         0.0454
     45 H8          0.5520    0.6849    0.9699 H         1 <0>         0.0824
     46 H9          3.5793   -2.0444   -0.3598 H         1 <0>         0.0430
     47 H10         2.7239   -3.6020   -0.4617 H         1 <0>         0.0831
     48 H11         3.7787   -3.0769   -1.7959 H         1 <0>         0.0399
     49 H12         2.1411   -3.2275   -3.6760 H         1 <0>         0.0846
     50 H13        -2.2704   -3.8389   -5.8568 H         1 <0>         0.1312
     51 H14        -3.5861   -3.7362   -7.9320 H         1 <0>         0.1215
     52 H15        -2.5991   -2.7968   -9.9792 H         1 <0>         0.1254
     53 H16        -0.2958   -1.9505   -9.9786 H         1 <0>         0.1298
     54 H17         7.4174   -1.0214   -3.6709 H         1 <0>         0.1389
     55 H18         9.6265   -1.7607   -4.4592 H         1 <0>         0.1299
     56 H19         9.8176   -3.6704   -5.9969 H         1 <0>         0.1342
     57 H20         7.8131   -4.8612   -6.7618 H         1 <0>         0.1370
     58 H21         3.2886   -5.3266   -6.6977 H         1 <0>         0.3902
@<TRIPOS>BOND
     1    1    2 1
     2    1   38 1
     3    1   39 1
     4    1   40 1
     5    2    3 1
     6    3    8 ar
     7    3    4 ar
     8    4    5 ar
     9    4   41 1
    10    5    6 ar
    11    5   42 1
    12    6    7 ar
    13    6   13 1
    14    7    8 ar
    15    7   11 1
    16    8    9 1
    17    9   10 1
    18   10   43 1
    19   10   44 1
    20   10   45 1
    21   11   12 1
    22   12   46 1
    23   12   47 1
    24   12   48 1
    25   13   14 1
    26   13   26 1
    27   13   49 1
    28   14   24 2
    29   14   15 1
    30   15   16 2
    31   15   17 1
    32   17   22 ar
    33   17   18 ar
    34   18   19 ar
    35   18   50 1
    36   19   20 ar
    37   19   51 1
    38   20   21 ar
    39   20   52 1
    40   21   22 ar
    41   21   53 1
    42   22   23 1
    43   23   24 1
    44   24   25 1
    45   26   36 2
    46   26   27 1
    47   27   28 2
    48   27   29 1
    49   29   34 ar
    50   29   30 ar
    51   30   31 ar
    52   30   54 1
    53   31   32 ar
    54   31   55 1
    55   32   33 ar
    56   32   56 1
    57   33   34 ar
    58   33   57 1
    59   34   35 1
    60   35   36 1
    61   36   37 1
    62   37   58 1
@<TRIPOS>MOLECULE
ZINC13191322
   55    58     0     0     0
SMALL
USER_CHARGES
3-[[4-[[(3R)-2,3-dihydro-1,4-benzodioxin-3-yl]methyl-methyl-amino]-3-nitro-phenyl]sulfonylamino]benzoic acid
@<TRIPOS>ATOM
      1 C1          1.4371    1.3602    2.4043 C.3       1 <0>         0.0302
      2 N1          2.0739    0.9688    1.1397 N.pl3     1 <0>        -0.4954
      3 C2          1.4229    1.6242   -0.0025 C.3       1 <0>         0.0659
      4 C3          1.7568    0.8617   -1.2862 C.3       1 <0>         0.0560
      5 H1          2.8379    0.7618   -1.3838 H         1 <0>         0.0727
      6 C4          1.1955    1.6177   -2.4981 C.3       1 <0>         0.0282
      7 O1          1.5141    0.8722   -3.6783 O.3       1 <0>        -0.3060
      8 C5          1.2803   -0.4680   -3.6368 C.ar      1 <0>         0.0387
      9 C6          1.2184   -1.1854   -4.8223 C.ar      1 <0>        -0.1157
     10 C7          0.9849   -2.5472   -4.7962 C.ar      1 <0>        -0.1203
     11 C8          0.8118   -3.1982   -3.5889 C.ar      1 <0>        -0.1144
     12 C9          0.8714   -2.4893   -2.4041 C.ar      1 <0>        -0.1070
     13 C10         1.1042   -1.1221   -2.4233 C.ar      1 <0>         0.0550
     14 O2          1.1536   -0.4362   -1.2477 O.3       1 <0>        -0.2704
     15 C11         3.4428    1.2454    1.1620 C.ar      1 <0>         0.2025
     16 C12         3.8863    2.5582    1.2616 C.ar      1 <0>        -0.1761
     17 C13         5.2403    2.8282    1.2834 C.ar      1 <0>         0.0376
     18 C14         6.1546    1.7933    1.2060 C.ar      1 <0>        -0.6824
     19 C15         5.7167    0.4856    1.1068 C.ar      1 <0>         0.0563
     20 C16         4.3637    0.2082    1.0903 C.ar      1 <0>        -0.0438
     21 N2          3.8958   -1.1924    0.9902 N.pl3     1 <0>         0.0237
     22 O3          4.7040   -2.1015    0.9274 O.2       1 <0>        -0.1916
     23 O4          2.7025   -1.4359    0.9706 O.3       1 <0>        -0.0739
     24 S1          7.8815    2.1423    1.2335 S.o2      1 <0>         2.6956
     25 O5          8.5273    1.0470    0.5990 O.2       1 <0>        -0.9368
     26 O6          8.0325    3.4812    0.7821 O.2       1 <0>        -0.9493
     27 N3          8.3603    2.1204    2.8186 N.pl3     1 <0>        -1.0438
     28 C17         8.3013    0.9314    3.5499 C.ar      1 <0>         0.1015
     29 C18         8.7610   -0.2541    2.9875 C.ar      1 <0>        -0.1549
     30 C19         8.7053   -1.4329    3.7068 C.ar      1 <0>        -0.1148
     31 C20         8.1934   -1.4415    4.9885 C.ar      1 <0>        -0.0763
     32 C21         7.7290   -0.2565    5.5627 C.ar      1 <0>        -0.0987
     33 C22         7.7897    0.9347    4.8383 C.ar      1 <0>        -0.0908
     34 C23         7.1805   -0.2627    6.9345 C.2       1 <0>         0.4890
     35 O7          6.7771    0.7694    7.4320 O.co2     1 <0>        -0.6309
     36 H2          0.4122    0.9897    2.4249 H         1 <0>         0.0922
     37 H3          1.9942    0.9344    3.2388 H         1 <0>         0.0784
     38 H4          1.4323    2.4470    2.4876 H         1 <0>         0.0397
     39 H5          1.7816    2.6501   -0.0855 H         1 <0>         0.0716
     40 H6          0.3433    1.6278    0.1476 H         1 <0>         0.1078
     41 H7          0.1137    1.7120   -2.4037 H         1 <0>         0.0814
     42 H8          1.6472    2.6081   -2.5551 H         1 <0>         0.1193
     43 H9          1.3532   -0.6792   -5.7668 H         1 <0>         0.1313
     44 H10         0.9373   -3.1038   -5.7205 H         1 <0>         0.1303
     45 H11         0.6301   -4.2627   -3.5716 H         1 <0>         0.1322
     46 H12         0.7363   -3.0003   -1.4623 H         1 <0>         0.1403
     47 H13         3.1728    3.3668    1.3224 H         1 <0>         0.1547
     48 H14         5.5857    3.8485    1.3612 H         1 <0>         0.1606
     49 H15         6.4333   -0.3201    1.0469 H         1 <0>         0.1733
     50 H16         8.6817    2.9332    3.2394 H         1 <0>         0.4271
     51 H17         9.1633   -0.2537    1.9853 H         1 <0>         0.1514
     52 H18         9.0639   -2.3506    3.2645 H         1 <0>         0.1285
     53 H19         8.1523   -2.3647    5.5474 H         1 <0>         0.1360
     54 H20         7.4358    1.8553    5.2784 H         1 <0>         0.1318
     55 O8          7.1277   -1.4130    7.6336 O.co2     1 <0>        -0.7475
@<TRIPOS>BOND
     1    1    2 1
     2    1   36 1
     3    1   37 1
     4    1   38 1
     5    2    3 1
     6    2   15 1
     7    3    4 1
     8    3   39 1
     9    3   40 1
    10    4    5 1
    11    4   14 1
    12    4    6 1
    13    6    7 1
    14    6   41 1
    15    6   42 1
    16    7    8 1
    17    8   13 ar
    18    8    9 ar
    19    9   10 ar
    20    9   43 1
    21   10   11 ar
    22   10   44 1
    23   11   12 ar
    24   11   45 1
    25   12   13 ar
    26   12   46 1
    27   13   14 1
    28   15   20 ar
    29   15   16 ar
    30   16   17 ar
    31   16   47 1
    32   17   18 ar
    33   17   48 1
    34   18   19 ar
    35   18   24 1
    36   19   20 ar
    37   19   49 1
    38   20   21 1
    39   21   22 2
    40   21   23 1
    41   24   25 2
    42   24   26 2
    43   24   27 1
    44   27   28 1
    45   27   50 1
    46   28   33 ar
    47   28   29 ar
    48   29   30 ar
    49   29   51 1
    50   30   31 ar
    51   30   52 1
    52   31   32 ar
    53   31   53 1
    54   32   33 ar
    55   32   34 1
    56   33   54 1
    57   34   35 2
    58   34   55 1
@<TRIPOS>MOLECULE
ZINC11855317
   53    57     0     0     0
SMALL
USER_CHARGES
2-(4-nitrophenyl)-N-[2-(4-oxo-6-phenyl-3H-pyrimidin-2-yl)-5-(2-thienyl)pyrazol-3-yl]acetamide
@<TRIPOS>ATOM
      1 C1          1.0705    8.4907   -3.7751 C.ar      1 <0>        -0.1225
      2 C2          1.0871    7.4111   -2.9102 C.ar      1 <0>        -0.1267
      3 C3          1.0961    7.6168   -1.5458 C.ar      1 <0>        -0.0916
      4 C4          1.0884    8.9160   -1.0392 C.ar      1 <0>        -0.0218
      5 C5          1.0658   10.0002   -1.9161 C.ar      1 <0>        -0.0998
      6 C6          1.0628    9.7820   -3.2786 C.ar      1 <0>        -0.1211
      7 C7          1.0980    9.1436    0.4249 C.ar      1 <0>         0.2184
      8 C8          1.0899   10.4350    0.9289 C.ar      1 <0>        -0.3472
      9 C9          1.0990   10.6138    2.3217 C.ar      1 <0>         0.5065
     10 O1          1.0919   11.7346    2.8043 O.3       1 <0>        -0.6009
     11 N1          1.1100    9.5235    3.1170 N.ar      1 <0>        -0.6278
     12 C10         1.1226    8.2785    2.5697 C.ar      1 <0>         0.5792
     13 N2          1.1142    8.1015    1.2683 N.ar      1 <0>        -0.6503
     14 N3          1.1388    7.1752    3.4013 N.pl3     1 <0>        -0.3003
     15 C11         1.1473    5.8688    3.0022 C.2       1 <0>         0.3398
     16 C12         1.1687    5.0972    4.1182 C.2       1 <0>        -0.2684
     17 C13         1.1672    5.9565    5.2373 C.2       1 <0>         0.1475
     18 N4          1.1457    7.1997    4.8017 N.2       1 <0>        -0.2137
     19 C14         1.1872    5.5347    6.6540 C.2       1 <0>        -0.0644
     20 C15         1.1871    6.3075    7.7844 C.2       1 <0>        -0.1361
     21 C16         1.2082    5.6840    9.0128 C.2       1 <0>        -0.1515
     22 C17         1.2285    4.3274    9.0659 C.2       1 <0>        -0.1855
     23 S1          1.2100    3.8851    7.3364 S.3       1 <0>         0.0792
     24 N5          1.1413    5.4111    1.6864 N.am      1 <0>        -0.6483
     25 C18         1.1570    4.0874    1.4333 C.2       1 <0>         0.5174
     26 O2          1.1763    3.2947    2.3510 O.2       1 <0>        -0.5124
     27 C19         1.1505    3.5924    0.0099 C.3       1 <0>        -0.1109
     28 C20         1.1709    2.0855    0.0021 C.ar      1 <0>        -0.0083
     29 C21        -0.0167    1.3781    0.0096 C.ar      1 <0>        -0.1019
     30 C22         0.0021   -0.0041    0.0020 C.ar      1 <0>        -0.0517
     31 C23         1.2084   -0.6789   -0.0136 C.ar      1 <0>        -0.0466
     32 C24         2.3960    0.0285   -0.0212 C.ar      1 <0>        -0.0517
     33 C25         2.3773    1.4107   -0.0136 C.ar      1 <0>        -0.1020
     34 N6          1.2285   -2.1589   -0.0218 N.pl3     1 <0>         0.0300
     35 O3          0.1821   -2.7822   -0.0147 O.2       1 <0>        -0.1629
     36 O4          2.2914   -2.7535   -0.0356 O.3       1 <0>        -0.1629
     37 H1          1.0639    8.3248   -4.8423 H         1 <0>         0.1189
     38 H2          1.0928    6.4054   -3.3037 H         1 <0>         0.1212
     39 H3          1.1095    6.7732   -0.8715 H         1 <0>         0.1177
     40 H4          1.0553   11.0086   -1.5296 H         1 <0>         0.1294
     41 H5          1.0502   10.6208   -3.9587 H         1 <0>         0.1223
     42 H6          1.0765   11.2861    0.2641 H         1 <0>         0.1214
     43 H7          1.1846    4.0177    4.1450 H         1 <0>         0.1798
     44 H8          1.1711    7.3851    7.7144 H         1 <0>         0.1421
     45 H9          1.2091    6.2669    9.9220 H         1 <0>         0.1348
     46 H10         1.2459    3.6820    9.9316 H         1 <0>         0.1859
     47 H11         1.1237    6.1301    0.8541 H         1 <0>         0.4542
     48 H12         0.2427    3.9495   -0.4983 H         1 <0>         0.1203
     49 H13         2.0387    3.9739   -0.5151 H         1 <0>         0.1203
     50 H14        -0.9592    1.9054    0.0170 H         1 <0>         0.1477
     51 H15        -0.9258   -0.5567    0.0079 H         1 <0>         0.1537
     52 H16         3.3385   -0.4987   -0.0327 H         1 <0>         0.1537
     53 H17         3.3052    1.9634   -0.0188 H         1 <0>         0.1478
@<TRIPOS>BOND
     1    1    6 ar
     2    1    2 ar
     3    1   37 1
     4    2    3 ar
     5    2   38 1
     6    3    4 ar
     7    3   39 1
     8    4    5 ar
     9    4    7 1
    10    5    6 ar
    11    5   40 1
    12    6   41 1
    13    7   13 ar
    14    7    8 ar
    15    8    9 ar
    16    8   42 1
    17    9   10 1
    18    9   11 ar
    19   11   12 ar
    20   12   13 ar
    21   12   14 1
    22   14   18 1
    23   14   15 1
    24   15   16 2
    25   15   24 1
    26   16   17 1
    27   16   43 1
    28   17   18 2
    29   17   19 1
    30   19   23 1
    31   19   20 2
    32   20   21 1
    33   20   44 1
    34   21   22 2
    35   21   45 1
    36   22   23 1
    37   22   46 1
    38   24   25 am
    39   24   47 1
    40   25   26 2
    41   25   27 1
    42   27   28 1
    43   27   48 1
    44   27   49 1
    45   28   33 ar
    46   28   29 ar
    47   29   30 ar
    48   29   50 1
    49   30   31 ar
    50   30   51 1
    51   31   32 ar
    52   31   34 1
    53   32   33 ar
    54   32   52 1
    55   33   53 1
    56   34   35 2
    57   34   36 1
@<TRIPOS>MOLECULE
ZINC35698158
   66    69     0     0     0
SMALL
USER_CHARGES

@<TRIPOS>ATOM
      1 C1         -0.0906    1.3736    3.0291 C.3       1 <0>        -0.1652
      2 C2         -0.6288    1.4430    1.5986 C.3       1 <0>         0.1130
      3 N1         -1.9690    0.8530    1.5519 N.am      1 <0>        -0.6144
      4 C3         -3.1476    1.6940    1.7749 C.3       1 <0>         0.1094
      5 C4         -3.5521    2.3642    0.4604 C.3       1 <0>        -0.1689
      6 C5         -2.1175   -0.4633    1.3037 C.2       1 <0>         0.6096
      7 O1         -1.1356   -1.1791    1.2014 O.2       1 <0>        -0.5361
      8 C6         -3.4019   -1.0101    1.1629 C.2       1 <0>        -0.3658
      9 C7         -4.1653   -1.3299    2.2671 C.2       1 <0>         0.2227
     10 N2         -5.3759   -1.8453    2.1198 N.2       1 <0>        -0.5955
     11 C8         -5.9503   -2.0941    0.9614 C.2       1 <0>         0.3253
     12 N3         -5.3637   -1.8493   -0.2489 N.pl3     1 <0>        -0.5225
     13 C9         -3.9979   -1.2625   -0.2040 C.3       1 <0>         0.2718
     14 H1         -4.0188   -0.3143   -0.7412 H         1 <0>         0.0653
     15 C10        -3.0740   -2.1914   -0.9486 C.ar      1 <0>        -0.0660
     16 C11        -2.1264   -1.6768   -1.8136 C.ar      1 <0>        -0.0858
     17 C12        -1.2789   -2.5289   -2.4967 C.ar      1 <0>        -0.1146
     18 C13        -1.3786   -3.8956   -2.3143 C.ar      1 <0>        -0.0914
     19 C14        -2.3256   -4.4101   -1.4486 C.ar      1 <0>        -0.1172
     20 C15        -3.1702   -3.5578   -0.7624 C.ar      1 <0>        -0.0792
     21 C16        -0.4553   -4.8246   -3.0597 C.3       1 <0>        -0.1080
     22 C17        -6.0967   -2.1644   -1.3759 C.2       1 <0>         0.2327
     23 C18        -7.3296   -2.6870   -1.1959 C.2       1 <0>        -0.3112
     24 S1         -7.4541   -2.7351    0.5808 S.3       1 <0>         0.1066
     25 C19        -5.5551   -1.9387   -2.7237 C.2       1 <0>        -0.4412
     26 C20        -6.3411   -2.1138   -3.8033 C.2       1 <0>         0.5081
     27 O2         -7.6633   -2.3660   -3.6452 O.3       1 <0>        -0.7084
     28 N4         -5.7982   -2.0362   -5.0748 N.pl3     1 <0>        -0.6026
     29 N5         -4.4656   -1.7820   -5.2342 N.3       1 <0>        -0.2721
     30 C21        -4.2523   -0.5029   -5.9268 C.3       1 <0>        -0.0001
     31 C22        -2.7496   -0.2294   -6.0308 C.3       1 <0>         0.0691
     32 O3         -2.1169   -1.3214   -6.7036 O.3       1 <0>        -0.3885
     33 C23        -2.3037   -2.5827   -6.0558 C.3       1 <0>         0.0655
     34 C24        -3.8019   -2.8800   -5.9520 C.3       1 <0>         0.0053
     35 C25        -3.6170   -1.0914    3.6504 C.3       1 <0>        -0.1003
     36 H2          0.9065    1.8125    3.0639 H         1 <0>         0.0600
     37 H3         -0.7542    1.9262    3.6942 H         1 <0>         0.0525
     38 H4         -0.0407    0.3326    3.3484 H         1 <0>         0.0594
     39 H5         -0.6787    2.4840    1.2793 H         1 <0>         0.0697
     40 H6          0.0348    0.8904    0.9335 H         1 <0>         0.0791
     41 H7         -3.9706    1.0775    2.1367 H         1 <0>         0.0831
     42 H8         -2.9135    2.4586    2.5156 H         1 <0>         0.0697
     43 H9         -3.8714    1.6035   -0.2521 H         1 <0>         0.0586
     44 H10        -4.3729    3.0577    0.6436 H         1 <0>         0.0627
     45 H11        -2.7003    2.9089    0.0531 H         1 <0>         0.0546
     46 H12        -2.0485   -0.6091   -1.9561 H         1 <0>         0.1051
     47 H13        -0.5390   -2.1270   -3.1730 H         1 <0>         0.1110
     48 H14        -2.4037   -5.4778   -1.3064 H         1 <0>         0.1112
     49 H15        -3.9076   -3.9595   -0.0832 H         1 <0>         0.1018
     50 H16         0.4440   -4.9950   -2.4679 H         1 <0>         0.0634
     51 H17        -0.9601   -5.7745   -3.2355 H         1 <0>         0.0608
     52 H18        -0.1821   -4.3761   -4.0149 H         1 <0>         0.0607
     53 H19        -8.0520   -2.9961   -1.9369 H         1 <0>         0.2266
     54 H20        -4.5269   -1.6324   -2.8482 H         1 <0>         0.1068
     55 H21        -6.3643   -2.1623   -5.8524 H         1 <0>         0.3637
     56 H22        -4.6831   -0.5542   -6.9268 H         1 <0>         0.0389
     57 H23        -4.7302    0.2995   -5.3647 H         1 <0>         0.0880
     58 H24        -2.5850    0.6894   -6.5937 H         1 <0>         0.0956
     59 H25        -2.3286   -0.1248   -5.0309 H         1 <0>         0.0611
     60 H26        -1.8166   -3.3659   -6.6367 H         1 <0>         0.0947
     61 H27        -1.8697   -2.5465   -5.0566 H         1 <0>         0.0680
     62 H28        -3.9511   -3.8129   -5.4083 H         1 <0>         0.0893
     63 H29        -4.2255   -2.9693   -6.9524 H         1 <0>         0.0375
     64 H30        -3.9590   -0.1227    4.0147 H         1 <0>         0.0739
     65 H31        -3.9677   -1.8762    4.3206 H         1 <0>         0.0761
     66 H32        -2.5275   -1.1027    3.6163 H         1 <0>         0.0671
@<TRIPOS>BOND
     1    1    2 1
     2    1   36 1
     3    1   37 1
     4    1   38 1
     5    2    3 1
     6    2   39 1
     7    2   40 1
     8    3    4 1
     9    3    6 am
    10    4    5 1
    11    4   41 1
    12    4   42 1
    13    5   43 1
    14    5   44 1
    15    5   45 1
    16    6    7 2
    17    6    8 1
    18    8   13 1
    19    8    9 2
    20    9   10 1
    21    9   35 1
    22   10   11 2
    23   11   24 1
    24   11   12 1
    25   12   13 1
    26   12   22 1
    27   13   14 1
    28   13   15 1
    29   15   20 ar
    30   15   16 ar
    31   16   17 ar
    32   16   46 1
    33   17   18 ar
    34   17   47 1
    35   18   19 ar
    36   18   21 1
    37   19   20 ar
    38   19   48 1
    39   20   49 1
    40   21   50 1
    41   21   51 1
    42   21   52 1
    43   22   23 2
    44   22   25 1
    45   23   24 1
    46   23   53 1
    47   25   26 2
    48   25   54 1
    49   26   27 1
    50   26   28 1
    51   28   29 1
    52   28   55 1
    53   29   34 1
    54   29   30 1
    55   30   31 1
    56   30   56 1
    57   30   57 1
    58   31   32 1
    59   31   58 1
    60   31   59 1
    61   32   33 1
    62   33   34 1
    63   33   60 1
    64   33   61 1
    65   34   62 1
    66   34   63 1
    67   35   64 1
    68   35   65 1
    69   35   66 1
@<TRIPOS>MOLECULE
ZINC39724296
   58    61     0     0     0
SMALL
USER_CHARGES

@<TRIPOS>ATOM
      1 C1         -0.0187    1.5258    0.0104 C.3       1 <0>        -0.1491
      2 C2          0.0021   -0.0041    0.0020 C.3       1 <0>        -0.0514
      3 C3         -1.4117   -0.5257    0.0127 C.2       1 <0>        -0.0804
      4 C4         -2.1508   -0.8936   -1.0425 C.2       1 <0>        -0.1611
      5 C5         -3.5077   -1.4477   -0.7724 C.3       1 <0>        -0.1203
      6 H1         -3.4384   -2.5252   -0.6233 H         1 <0>         0.1342
      7 C6         -4.0380   -0.7720    0.5376 C.3       1 <0>         0.1033
      8 H2         -4.3300    0.2569    0.3270 H         1 <0>         0.0995
      9 S1         -2.4650   -0.7948    1.4452 S.3       1 <0>        -0.1207
     10 N1         -5.1647   -1.5054    0.9884 N.2       1 <0>        -0.5215
     11 C7         -6.0547   -1.7840    0.0414 C.2       1 <0>         0.3438
     12 N2         -5.8611   -1.3273   -1.2544 N.am      1 <0>        -0.5709
     13 C8         -4.6056   -1.1453   -1.7598 C.2       1 <0>         0.5463
     14 O1         -4.3954   -0.7971   -2.9021 O.2       1 <0>        -0.4750
     15 C9         -7.0241   -1.0073   -2.0859 C.3       1 <0>         0.0944
     16 C10        -7.4005    0.4629   -1.8922 C.3       1 <0>        -0.1282
     17 C11        -8.6150    0.7971   -2.7607 C.3       1 <0>        -0.0943
     18 C12        -9.0680    2.2302   -2.4742 C.3       1 <0>        -0.1461
     19 C13        -8.2372    0.6672   -4.2376 C.3       1 <0>        -0.1510
     20 S2         -7.4844   -2.7367    0.4325 S.3       1 <0>         0.1162
     21 C14        -7.3022   -3.0956    2.2013 C.3       1 <0>        -0.0792
     22 C15        -8.4754   -3.9166    2.6707 C.2       1 <0>         0.3802
     23 N3         -8.5233   -4.2836    3.9779 N.am      1 <0>        -0.6486
     24 H3         -7.8110   -4.0146    4.5789 H         1 <0>         0.4149
     25 C16        -9.5557   -5.0207    4.4493 C.2       1 <0>         0.5573
     26 O2         -9.6114   -5.3560    5.6179 O.2       1 <0>        -0.5174
     27 C17       -10.6099   -5.4009    3.4929 C.ar      1 <0>        -0.1958
     28 C18       -11.7139   -6.1581    3.8801 C.ar      1 <0>        -0.0655
     29 C19       -12.6686   -6.4882    2.9608 C.ar      1 <0>        -0.0886
     30 C20       -12.5488   -6.0718    1.6284 C.ar      1 <0>        -0.0889
     31 C21       -11.4547   -5.3160    1.2219 C.ar      1 <0>        -0.0639
     32 C22       -10.4735   -4.9730    2.1542 C.ar      1 <0>         0.1260
     33 N4         -9.3912   -4.2324    1.8064 N.2       1 <0>        -0.4898
     34 C23       -13.5924   -6.4390    0.6481 C.2       1 <0>         0.5190
     35 O3        -14.5558   -7.1037    1.0009 O.co2     1 <0>        -0.6769
     36 O4        -13.4920   -6.0779   -0.5156 O.co2     1 <0>        -0.6753
     37 H4          1.0039    1.9031    0.0027 H         1 <0>         0.0643
     38 H5         -0.5459    1.8868   -0.8726 H         1 <0>         0.0576
     39 H6         -0.5289    1.8773    0.9072 H         1 <0>         0.0612
     40 H7          0.5123   -0.3556   -0.8948 H         1 <0>         0.0861
     41 H8          0.5293   -0.3651    0.8851 H         1 <0>         0.0824
     42 H9         -1.7774   -0.7921   -2.0508 H         1 <0>         0.1450
     43 H10        -6.7816   -1.1853   -3.1336 H         1 <0>         0.1007
     44 H11        -7.8636   -1.6387   -1.7949 H         1 <0>         0.0999
     45 H12        -7.6430    0.6409   -0.8445 H         1 <0>         0.0691
     46 H13        -6.5610    1.0943   -2.1832 H         1 <0>         0.0652
     47 H14        -9.4268    0.1068   -2.5312 H         1 <0>         0.0802
     48 H15        -8.2563    2.9205   -2.7037 H         1 <0>         0.0517
     49 H16        -9.9333    2.4682   -3.0929 H         1 <0>         0.0579
     50 H17        -9.3372    2.3227   -1.4221 H         1 <0>         0.0555
     51 H18        -7.9145   -0.3537   -4.4416 H         1 <0>         0.0572
     52 H19        -9.1025    0.9053   -4.8562 H         1 <0>         0.0573
     53 H20        -7.4255    1.3575   -4.4670 H         1 <0>         0.0535
     54 H21        -6.3798   -3.6526    2.3659 H         1 <0>         0.1297
     55 H22        -7.2664   -2.1603    2.7600 H         1 <0>         0.1299
     56 H23       -11.8142   -6.4836    4.9050 H         1 <0>         0.1329
     57 H24       -13.5230   -7.0754    3.2635 H         1 <0>         0.1402
     58 H25       -11.3647   -4.9970    0.1940 H         1 <0>         0.1473
@<TRIPOS>BOND
     1    1    2 1
     2    1   37 1
     3    1   38 1
     4    1   39 1
     5    2    3 1
     6    2   40 1
     7    2   41 1
     8    3    9 1
     9    3    4 2
    10    4    5 1
    11    4   42 1
    12    5    6 1
    13    5   13 1
    14    5    7 1
    15    7    8 1
    16    7    9 1
    17    7   10 1
    18   10   11 2
    19   11   12 1
    20   11   20 1
    21   12   13 am
    22   12   15 1
    23   13   14 2
    24   15   16 1
    25   15   43 1
    26   15   44 1
    27   16   17 1
    28   16   45 1
    29   16   46 1
    30   17   18 1
    31   17   19 1
    32   17   47 1
    33   18   48 1
    34   18   49 1
    35   18   50 1
    36   19   51 1
    37   19   52 1
    38   19   53 1
    39   20   21 1
    40   21   22 1
    41   21   54 1
    42   21   55 1
    43   22   33 2
    44   22   23 1
    45   23   24 1
    46   23   25 am
    47   25   26 2
    48   25   27 1
    49   27   32 ar
    50   27   28 ar
    51   28   29 ar
    52   28   56 1
    53   29   30 ar
    54   29   57 1
    55   30   31 ar
    56   30   34 1
    57   31   32 ar
    58   31   58 1
    59   32   33 1
    60   34   35 2
    61   34   36 1
@<TRIPOS>MOLECULE
ZINC02830476
   57    61     0     0     0
SMALL
USER_CHARGES

@<TRIPOS>ATOM
      1 C1          1.8305   -2.7104   -1.0017 C.ar      1 <0>        -0.1226
      2 C2          1.9636   -1.3792   -0.6534 C.ar      1 <0>        -0.1314
      3 C3          3.2216   -0.8215   -0.5224 C.ar      1 <0>        -0.0989
      4 C4          4.3466   -1.5951   -0.7391 C.ar      1 <0>        -0.0985
      5 C5          4.2135   -2.9264   -1.0864 C.ar      1 <0>        -0.0908
      6 C6          2.9555   -3.4838   -1.2189 C.ar      1 <0>        -0.1300
      7 C7          5.7180   -0.9868   -0.5971 C.3       1 <0>         0.1464
      8 N1          6.1793   -1.1395    0.7849 N.am      1 <0>        -0.5828
      9 C8          5.8998   -0.1810    1.6949 C.2       1 <0>         0.5664
     10 O1          5.2683    0.8127    1.3861 O.2       1 <0>        -0.5378
     11 C9          6.3828   -0.3764    3.0723 C.2       1 <0>        -0.2885
     12 C10         6.1338    0.5670    4.0659 C.2       1 <0>         0.1291
     13 C11         6.4160    0.2635    5.4111 C.2       1 <0>        -0.2107
     14 C12         6.0664   -0.8893    6.0967 C.2       1 <0>         0.2267
     15 N2          6.5121   -0.8121    7.3625 N.pl3     1 <0>        -0.4506
     16 C13         7.1724    0.3818    7.5786 C.ar      1 <0>         0.0895
     17 C14         7.1506    1.1065    6.3770 C.ar      1 <0>        -0.0483
     18 C15         7.7532    2.3577    6.3037 C.ar      1 <0>        -0.0858
     19 C16         8.3754    2.8822    7.4169 C.ar      1 <0>        -0.1389
     20 C17         8.4012    2.1671    8.6044 C.ar      1 <0>        -0.1202
     21 C18         7.8012    0.9290    8.6919 C.ar      1 <0>        -0.1164
     22 C19         6.3229   -1.8530    8.3758 C.3       1 <0>         0.0902
     23 C20         5.0999   -1.5374    9.1978 C.2       1 <0>         0.4955
     24 O2          4.4503   -0.5411    8.9606 O.2       1 <0>        -0.5118
     25 N3          4.7279   -2.3624   10.1966 N.am      1 <0>        -0.7284
     26 C21         3.5390   -2.0556   10.9957 C.3       1 <0>         0.2081
     27 C22         3.3443   -3.1264   12.0381 C.2       1 <0>        -0.1717
     28 C23         3.8241   -3.1820   13.3046 C.2       1 <0>        -0.1333
     29 C24         3.5129   -4.2747   14.0919 C.2       1 <0>        -0.1628
     30 C25         2.7370   -5.2582   13.5742 C.2       1 <0>        -0.1661
     31 S1          2.4154   -4.6470   11.9280 S.3       1 <0>         0.0553
     32 C26         7.1135   -1.5666    3.3500 C.2       1 <0>         0.5002
     33 O3          7.5836   -1.8065    4.5925 O.3       1 <0>        -0.6425
     34 N4          7.3249   -2.4337    2.3749 N.2       1 <0>        -0.6745
     35 C27         6.8722   -2.2340    1.1394 C.2       1 <0>         0.6701
     36 O4          7.1007   -3.0787    0.2916 O.2       1 <0>        -0.5787
     37 H1          0.8477   -3.1472   -1.0997 H         1 <0>         0.1159
     38 H2          1.0846   -0.7749   -0.4841 H         1 <0>         0.1174
     39 H3          3.3255    0.2186   -0.2510 H         1 <0>         0.1265
     40 H4          5.0924   -3.5307   -1.2561 H         1 <0>         0.1313
     41 H5          2.8515   -4.5238   -1.4907 H         1 <0>         0.1184
     42 H6          6.4111   -1.4925   -1.2695 H         1 <0>         0.0969
     43 H7          5.6737    0.0724   -0.8504 H         1 <0>         0.0881
     44 H8          5.7242    1.5314    3.8043 H         1 <0>         0.1274
     45 H9          5.5199   -1.7215    5.6782 H         1 <0>         0.1699
     46 H10         7.7342    2.9158    5.3792 H         1 <0>         0.1200
     47 H11         8.8447    3.8534    7.3635 H         1 <0>         0.1185
     48 H12         8.8911    2.5865    9.4708 H         1 <0>         0.1188
     49 H13         7.8287    0.3797    9.6214 H         1 <0>         0.1097
     50 H14         6.1922   -2.8178    7.8856 H         1 <0>         0.1271
     51 H15         7.1974   -1.8910    9.0254 H         1 <0>         0.1188
     52 H16         5.2475   -3.1592   10.3864 H         1 <0>         0.4048
     53 H17         3.6697   -1.0908   11.4859 H         1 <0>         0.0921
     54 H18         2.6645   -2.0176   10.3462 H         1 <0>         0.0848
     55 H19         4.4407   -2.3848   13.6926 H         1 <0>         0.1356
     56 H20         3.8826   -4.3439   15.1043 H         1 <0>         0.1355
     57 H21         2.3980   -6.1725   14.0385 H         1 <0>         0.1870
@<TRIPOS>BOND
     1    1    6 ar
     2    1    2 ar
     3    1   37 1
     4    2    3 ar
     5    2   38 1
     6    3    4 ar
     7    3   39 1
     8    4    5 ar
     9    4    7 1
    10    5    6 ar
    11    5   40 1
    12    6   41 1
    13    7    8 1
    14    7   42 1
    15    7   43 1
    16    8   35 am
    17    8    9 am
    18    9   10 2
    19    9   11 1
    20   11   12 2
    21   11   32 1
    22   12   13 1
    23   12   44 1
    24   13   17 1
    25   13   14 2
    26   14   15 1
    27   14   45 1
    28   15   16 1
    29   15   22 1
    30   16   21 ar
    31   16   17 ar
    32   17   18 ar
    33   18   19 ar
    34   18   46 1
    35   19   20 ar
    36   19   47 1
    37   20   21 ar
    38   20   48 1
    39   21   49 1
    40   22   23 1
    41   22   50 1
    42   22   51 1
    43   23   24 2
    44   23   25 am
    45   25   26 1
    46   25   52 1
    47   26   27 1
    48   26   53 1
    49   26   54 1
    50   27   31 1
    51   27   28 2
    52   28   29 1
    53   28   55 1
    54   29   30 2
    55   29   56 1
    56   30   31 1
    57   30   57 1
    58   32   33 1
    59   32   34 2
    60   34   35 1
    61   35   36 2
@<TRIPOS>MOLECULE
ZINC13266082
   59    62     0     0     0
SMALL
USER_CHARGES
2-[2-[[(1R,2R,3S)-2,3-dimethylcyclohexyl]amino]-2-oxo-ethyl]sulfanyl-3-(2-fluorophenyl)-4-oxo-quinazoline-7-carboxylic acid
@<TRIPOS>ATOM
      1 C1          7.9037   -9.4251    1.0832 C.3       1 <0>        -0.1494
      2 C2          8.3526   -8.0941    0.4769 C.3       1 <0>        -0.0828
      3 H1          9.1799   -7.6897    1.0602 H         1 <0>         0.0723
      4 C3          8.8082   -8.3189   -0.9663 C.3       1 <0>        -0.1171
      5 C4          9.2571   -6.9879   -1.5727 C.3       1 <0>        -0.1164
      6 C5          8.0893   -5.9995   -1.5546 C.3       1 <0>        -0.1313
      7 C6          7.6338   -5.7747   -0.1114 C.3       1 <0>         0.1526
      8 H2          8.4611   -5.3703    0.4719 H         1 <0>         0.0898
      9 C7          7.1848   -7.1057    0.4949 C.3       1 <0>        -0.0936
     10 H3          6.3576   -7.5100   -0.0884 H         1 <0>         0.0774
     11 C8          6.7293   -6.8808    1.9381 C.3       1 <0>        -0.1515
     12 N1          6.5156   -4.8283   -0.0941 N.am      1 <0>        -0.7183
     13 C9          6.7553   -3.5020   -0.0886 C.2       1 <0>         0.5362
     14 O1          7.8967   -3.0920   -0.0980 O.2       1 <0>        -0.5261
     15 C10         5.6051   -2.5285   -0.0709 C.3       1 <0>        -0.1502
     16 S1          6.2470   -0.8362   -0.0674 S.3       1 <0>         0.0668
     17 C11         4.7331    0.0652   -0.0462 C.2       1 <0>         0.3398
     18 N2          3.6072   -0.6045   -0.0376 N.2       1 <0>        -0.5071
     19 C12         2.4085    0.0246   -0.0214 C.ar      1 <0>         0.1372
     20 C13         1.2087   -0.6924   -0.0137 C.ar      1 <0>        -0.0714
     21 C14         0.0021   -0.0041    0.0020 C.ar      1 <0>        -0.0653
     22 C15        -0.0169    1.3969    0.0097 C.ar      1 <0>        -0.0855
     23 C16         1.1486    2.1078    0.0024 C.ar      1 <0>        -0.0612
     24 C17         2.3715    1.4374   -0.0129 C.ar      1 <0>        -0.1924
     25 C18         3.6505    2.1643   -0.0224 C.2       1 <0>         0.5600
     26 O2          3.6844    3.3810   -0.0154 O.2       1 <0>        -0.5027
     27 N3          4.7876    1.4315   -0.0386 N.am      1 <0>        -0.4883
     28 C19         6.0312    2.0778   -0.0481 C.ar      1 <0>         0.0670
     29 C20         6.6586    2.3969    1.1483 C.ar      1 <0>        -0.0612
     30 C21         7.8869    3.0287    1.1359 C.ar      1 <0>        -0.1220
     31 C22         8.4876    3.3542   -0.0664 C.ar      1 <0>        -0.0722
     32 C23         7.8642    3.0437   -1.2608 C.ar      1 <0>        -0.1490
     33 C24         6.6368    2.4060   -1.2560 C.ar      1 <0>         0.1290
     34 F1          6.0276    2.1020   -2.4229 F         1 <0>        -0.1264
     35 C25        -1.2721   -0.7558    0.0102 C.2       1 <0>         0.4883
     36 O3         -1.2608   -1.9702    0.0036 O.co2     1 <0>        -0.6212
     37 H4          8.7356  -10.1292    1.0704 H         1 <0>         0.0546
     38 H5          7.5791   -9.2649    2.1114 H         1 <0>         0.0592
     39 H6          7.0764   -9.8294    0.4999 H         1 <0>         0.0551
     40 H7          7.9809   -8.7233   -1.5496 H         1 <0>         0.0634
     41 H8          9.6401   -9.0230   -0.9792 H         1 <0>         0.0635
     42 H9          9.5817   -7.1481   -2.6008 H         1 <0>         0.0650
     43 H10        10.0844   -6.5835   -0.9893 H         1 <0>         0.0639
     44 H11         7.2621   -6.4039   -2.1379 H         1 <0>         0.0651
     45 H12         8.4092   -5.0513   -1.9866 H         1 <0>         0.0688
     46 H13         5.8973   -6.1767    1.9510 H         1 <0>         0.0574
     47 H14         6.4094   -7.8291    2.3701 H         1 <0>         0.0616
     48 H15         7.5565   -6.4765    2.5215 H         1 <0>         0.0555
     49 H16         5.6028   -5.1562   -0.0866 H         1 <0>         0.4050
     50 H17         5.0050   -2.6914    0.8245 H         1 <0>         0.1314
     51 H18         4.9866   -2.6807   -0.9554 H         1 <0>         0.1311
     52 H19         1.2195   -1.7723   -0.0196 H         1 <0>         0.1455
     53 H20        -0.9622    1.9191    0.0170 H         1 <0>         0.1445
     54 H21         1.1236    3.1875    0.0081 H         1 <0>         0.1347
     55 H22         6.1887    2.1473    2.0882 H         1 <0>         0.1383
     56 H23         8.3771    3.2725    2.0669 H         1 <0>         0.1401
     57 H24         9.4457    3.8525   -0.0724 H         1 <0>         0.1405
     58 H25         8.3357    3.2997   -2.1981 H         1 <0>         0.1450
     59 O4         -2.4447   -0.0934    0.0250 O.co2     1 <0>        -0.7428
@<TRIPOS>BOND
     1    1    2 1
     2    1   37 1
     3    1   38 1
     4    1   39 1
     5    2    3 1
     6    2    9 1
     7    2    4 1
     8    4    5 1
     9    4   40 1
    10    4   41 1
    11    5    6 1
    12    5   42 1
    13    5   43 1
    14    6    7 1
    15    6   44 1
    16    6   45 1
    17    7    8 1
    18    7    9 1
    19    7   12 1
    20    9   10 1
    21    9   11 1
    22   11   46 1
    23   11   47 1
    24   11   48 1
    25   12   13 am
    26   12   49 1
    27   13   14 2
    28   13   15 1
    29   15   16 1
    30   15   50 1
    31   15   51 1
    32   16   17 1
    33   17   27 1
    34   17   18 2
    35   18   19 1
    36   19   24 ar
    37   19   20 ar
    38   20   21 ar
    39   20   52 1
    40   21   22 ar
    41   21   35 1
    42   22   23 ar
    43   22   53 1
    44   23   24 ar
    45   23   54 1
    46   24   25 1
    47   25   26 2
    48   25   27 am
    49   27   28 1
    50   28   33 ar
    51   28   29 ar
    52   29   30 ar
    53   29   55 1
    54   30   31 ar
    55   30   56 1
    56   31   32 ar
    57   31   57 1
    58   32   33 ar
    59   32   58 1
    60   33   34 1
    61   35   36 2
    62   35   59 1
@<TRIPOS>MOLECULE
ZINC35342534
   62    66     0     0     0
SMALL
USER_CHARGES

@<TRIPOS>ATOM
      1 C1          1.3701   -1.4250   -4.8504 C.3       1 <0>        -0.1492
      2 C2          1.0117   -2.1443   -3.5485 C.3       1 <0>        -0.1245
      3 C3         -0.3744   -2.7785   -3.6811 C.3       1 <0>         0.0589
      4 O1         -0.7091   -3.4503   -2.4651 O.3       1 <0>        -0.3165
      5 C4         -1.9169   -4.0715   -2.4158 C.ar      1 <0>         0.1123
      6 C5         -2.7598   -4.0389   -3.5192 C.ar      1 <0>        -0.1924
      7 C6         -3.9899   -4.6690   -3.4750 C.ar      1 <0>        -0.0968
      8 C7         -4.3884   -5.3346   -2.3340 C.ar      1 <0>        -0.1023
      9 C8         -3.5478   -5.3729   -1.2195 C.ar      1 <0>        -0.0995
     10 C9         -2.3040   -4.7411   -1.2678 C.ar      1 <0>        -0.1033
     11 C10        -3.9715   -6.0848    0.0054 C.2       1 <0>         0.5079
     12 C11        -5.3069   -6.6840    0.0799 C.2       1 <0>        -0.4901
     13 C12        -6.6266   -5.9483    0.0720 C.3       1 <0>         0.2645
     14 H1         -6.7364   -5.3855   -0.8550 H         1 <0>         0.0881
     15 N1         -7.6689   -6.9773    0.1641 N.am      1 <0>        -0.5095
     16 C13        -7.0625   -8.1769    0.2204 C.2       1 <0>         0.5112
     17 O2         -7.6361   -9.2449    0.3013 O.2       1 <0>        -0.4649
     18 C14        -5.5964   -8.0043    0.1632 C.2       1 <0>         0.2753
     19 O3         -4.6874   -9.0059    0.1925 O.3       1 <0>        -0.6327
     20 C15        -9.0341   -6.7533    0.1894 C.2       1 <0>         0.4201
     21 N2        -10.0105   -7.6268    0.2756 N.2       1 <0>        -0.5339
     22 C16       -11.3107   -7.2629    0.2902 C.ar      1 <0>         0.1138
     23 C17       -12.4500   -8.0964    0.3781 C.ar      1 <0>        -0.0360
     24 C18       -13.7110   -7.5605    0.3794 C.ar      1 <0>        -0.1108
     25 C19       -13.9171   -6.1908    0.2951 C.ar      1 <0>        -0.0811
     26 C20       -12.8260   -5.3459    0.2083 C.ar      1 <0>        -0.0649
     27 C21       -11.5588   -5.8736    0.2063 C.ar      1 <0>        -0.1546
     28 S1         -9.9167   -5.2007    0.1209 S.3       1 <0>         0.0014
     29 C22       -15.3158   -5.6299    0.2977 C.3       1 <0>        -0.1065
     30 C23       -12.2750   -9.5903    0.4709 C.3       1 <0>        -0.1112
     31 C24        -6.7092   -5.0195    1.2559 C.ar      1 <0>        -0.0945
     32 C25        -6.9149   -5.5332    2.5230 C.ar      1 <0>        -0.0709
     33 C26        -6.9915   -4.6839    3.6098 C.ar      1 <0>        -0.1411
     34 C27        -6.8614   -3.3146    3.4291 C.ar      1 <0>         0.1009
     35 C28        -6.6547   -2.8017    2.1568 C.ar      1 <0>        -0.1428
     36 C29        -6.5736   -3.6556    1.0739 C.ar      1 <0>        -0.0885
     37 O4         -6.9368   -2.4770    4.4966 O.3       1 <0>        -0.5020
     38 O5         -3.2115   -6.1731    0.9514 O.2       1 <0>        -0.4603
     39 H2          2.3576   -0.9732   -4.7559 H         1 <0>         0.0629
     40 H3          1.3755   -2.1415   -5.6718 H         1 <0>         0.0570
     41 H4          0.6327   -0.6478   -5.0510 H         1 <0>         0.0568
     42 H5          1.7492   -2.9215   -3.3479 H         1 <0>         0.0735
     43 H6          1.0063   -1.4278   -2.7271 H         1 <0>         0.0731
     44 H7         -1.1118   -2.0013   -3.8817 H         1 <0>         0.0600
     45 H8         -0.3690   -3.4950   -4.5025 H         1 <0>         0.0602
     46 H9         -2.4535   -3.5192   -4.4150 H         1 <0>         0.1246
     47 H10        -4.6409   -4.6397   -4.3362 H         1 <0>         0.1263
     48 H11        -5.3499   -5.8254   -2.3027 H         1 <0>         0.1344
     49 H12        -1.6474   -4.7712   -0.4108 H         1 <0>         0.1377
     50 H13       -14.5642   -8.2192    0.4471 H         1 <0>         0.1286
     51 H14       -12.9699   -4.2776    0.1421 H         1 <0>         0.1283
     52 H15       -15.6241   -5.4273    1.3234 H         1 <0>         0.0708
     53 H16       -15.3372   -4.7044   -0.2777 H         1 <0>         0.0665
     54 H17       -15.9978   -6.3524   -0.1507 H         1 <0>         0.0676
     55 H18       -12.2029   -9.8833    1.5183 H         1 <0>         0.0706
     56 H19       -13.1314  -10.0856    0.0133 H         1 <0>         0.0634
     57 H20       -11.3642   -9.8826   -0.0517 H         1 <0>         0.0785
     58 H21        -7.0160   -6.5993    2.6631 H         1 <0>         0.1194
     59 H22        -7.1528   -5.0856    4.5993 H         1 <0>         0.1253
     60 H23        -6.5532   -1.7361    2.0135 H         1 <0>         0.1266
     61 H24        -6.4083   -3.2572    0.0837 H         1 <0>         0.1273
     62 H25        -6.0854   -2.3023    4.9205 H         1 <0>         0.3870
@<TRIPOS>BOND
     1    1    2 1
     2    1   39 1
     3    1   40 1
     4    1   41 1
     5    2    3 1
     6    2   42 1
     7    2   43 1
     8    3    4 1
     9    3   44 1
    10    3   45 1
    11    4    5 1
    12    5   10 ar
    13    5    6 ar
    14    6    7 ar
    15    6   46 1
    16    7    8 ar
    17    7   47 1
    18    8    9 ar
    19    8   48 1
    20    9   10 ar
    21    9   11 1
    22   10   49 1
    23   11   12 1
    24   11   38 2
    25   12   18 2
    26   12   13 1
    27   13   15 1
    28   13   31 1
    29   13   14 1
    30   15   20 1
    31   15   16 am
    32   16   17 2
    33   16   18 1
    34   18   19 1
    35   20   28 1
    36   20   21 2
    37   21   22 1
    38   22   27 ar
    39   22   23 ar
    40   23   24 ar
    41   23   30 1
    42   24   25 ar
    43   24   50 1
    44   25   26 ar
    45   25   29 1
    46   26   27 ar
    47   26   51 1
    48   27   28 1
    49   29   52 1
    50   29   53 1
    51   29   54 1
    52   30   55 1
    53   30   56 1
    54   30   57 1
    55   31   36 ar
    56   31   32 ar
    57   32   33 ar
    58   32   58 1
    59   33   34 ar
    60   33   59 1
    61   34   35 ar
    62   34   37 1
    63   35   36 ar
    64   35   60 1
    65   36   61 1
    66   37   62 1
@<TRIPOS>MOLECULE
ZINC38183959
   63    68     0     0     0
SMALL
USER_CHARGES

@<TRIPOS>ATOM
      1 C1         -0.0167    1.3781    0.0096 C.ar      1 <0>        -0.1201
      2 C2          1.1709    2.0855    0.0021 C.ar      1 <0>        -0.1179
      3 C3          2.3773    1.4107   -0.0130 C.ar      1 <0>        -0.0972
      4 C4          2.3960    0.0285   -0.0201 C.ar      1 <0>        -0.0798
      5 C5          1.2084   -0.6789   -0.0117 C.ar      1 <0>        -0.1176
      6 C6          0.0021   -0.0041    0.0020 C.ar      1 <0>        -0.1184
      7 C7          3.7112   -0.7071   -0.0376 C.3       1 <0>        -0.0084
      8 C8          4.1644   -0.9594    1.3773 C.2       1 <0>         0.3070
      9 N1          4.9046   -0.1509    2.0783 N.2       1 <0>        -0.4859
     10 C9          5.1251   -0.6839    3.3075 C.ar      1 <0>         0.0517
     11 C10         5.8345   -0.2529    4.4317 C.ar      1 <0>        -0.0653
     12 C11         5.8735   -1.0330    5.5523 C.ar      1 <0>        -0.1294
     13 C12         5.2147   -2.2539    5.5881 C.ar      1 <0>        -0.1040
     14 C13         4.5087   -2.6993    4.4911 C.ar      1 <0>        -0.1059
     15 C14         4.4576   -1.9197    3.3434 C.ar      1 <0>         0.0597
     16 N2          3.8545   -2.0630    2.1099 N.pl3     1 <0>        -0.4683
     17 C15         3.0354   -3.1952    1.6700 C.3       1 <0>         0.0940
     18 C16         3.9183   -4.2352    1.0297 C.2       1 <0>         0.5001
     19 O1          5.1144   -4.0489    0.9487 O.2       1 <0>        -0.4677
     20 N3          3.3792   -5.3723    0.5471 N.am      1 <0>        -0.5932
     21 N4          4.2000   -6.3391   -0.0482 N.2       1 <0>        -0.1912
     22 C17         3.6802   -7.4353   -0.5135 C.2       1 <0>         0.1317
     23 C18         4.5417   -8.4500   -1.1382 C.ar      1 <0>        -0.1784
     24 C19         3.9850   -9.6384   -1.6503 C.ar      1 <0>         0.0054
     25 C20         4.8157  -10.6011   -2.2467 C.ar      1 <0>        -0.0720
     26 C21         6.1843  -10.3717   -2.3248 C.ar      1 <0>         0.0266
     27 C22         6.7280   -9.2084   -1.8218 C.ar      1 <0>        -0.1610
     28 C23         5.9210   -8.2426   -1.2354 C.ar      1 <0>         0.3134
     29 O2          6.4722   -7.0993   -0.7505 O.3       1 <0>        -0.5743
     30 N5          8.1882   -8.9837   -1.9142 N.pl3     1 <0>         0.0674
     31 O3          8.8968   -9.8175   -2.4284 O.2       1 <0>        -0.2527
     32 O4          8.6723   -7.9664   -1.4755 O.3       1 <0>        -0.1400
     33 O5          4.0271  -11.6229   -2.6450 O.3       1 <0>        -0.1935
     34 C24         2.7421  -11.3828   -2.3409 C.2       1 <0>         0.0521
     35 C25         2.6371  -10.1876   -1.7315 C.2       1 <0>        -0.2089
     36 C26         1.3485   -9.5788   -1.2461 C.3       1 <0>        -0.0458
     37 C27         0.1808  -10.3234   -1.9059 C.3       1 <0>        -0.1212
     38 C28         0.3866  -11.8322   -1.7441 C.3       1 <0>        -0.1155
     39 C29         1.5615  -12.2855   -2.6178 C.3       1 <0>        -0.0411
     40 H1         -0.9591    1.9053    0.0259 H         1 <0>         0.1212
     41 H2          1.1563    3.1654    0.0076 H         1 <0>         0.1233
     42 H3          3.3051    1.9634   -0.0196 H         1 <0>         0.1286
     43 H4          1.2231   -1.7588   -0.0176 H         1 <0>         0.1173
     44 H5         -0.9258   -0.5567    0.0082 H         1 <0>         0.1226
     45 H6          3.5884   -1.6586   -0.5549 H         1 <0>         0.0938
     46 H7          4.4573   -0.1052   -0.5563 H         1 <0>         0.1144
     47 H8          6.3514    0.6952    4.4144 H         1 <0>         0.1274
     48 H9          6.4228   -0.6965    6.4191 H         1 <0>         0.1274
     49 H10         5.2557   -2.8595    6.4815 H         1 <0>         0.1282
     50 H11         3.9975   -3.6501    4.5243 H         1 <0>         0.1183
     51 H12         2.5258   -3.6306    2.5296 H         1 <0>         0.1204
     52 H13         2.2970   -2.8501    0.9464 H         1 <0>         0.1198
     53 H14         2.4229   -5.5212    0.6119 H         1 <0>         0.3660
     54 H15         2.6155   -7.6012   -0.4414 H         1 <0>         0.1016
     55 H16         6.8265  -11.1098   -2.7823 H         1 <0>         0.1363
     56 H17         1.2813   -9.6787   -0.1627 H         1 <0>         0.0711
     57 H18         1.3141   -8.5250   -1.5226 H         1 <0>         0.0716
     58 H19        -0.7540  -10.0304   -1.4281 H         1 <0>         0.0687
     59 H20         0.1423  -10.0730   -2.9660 H         1 <0>         0.0667
     60 H21         0.6016  -12.0595   -0.7000 H         1 <0>         0.0701
     61 H22        -0.5180  -12.3571   -2.0511 H         1 <0>         0.0757
     62 H23         1.2846  -12.2139   -3.6697 H         1 <0>         0.0888
     63 H24         1.8228  -13.3153   -2.3743 H         1 <0>         0.0862
@<TRIPOS>BOND
     1    1    6 ar
     2    1    2 ar
     3    1   40 1
     4    2    3 ar
     5    2   41 1
     6    3    4 ar
     7    3   42 1
     8    4    5 ar
     9    4    7 1
    10    5    6 ar
    11    5   43 1
    12    6   44 1
    13    7    8 1
    14    7   45 1
    15    7   46 1
    16    8   16 1
    17    8    9 2
    18    9   10 1
    19   10   15 ar
    20   10   11 ar
    21   11   12 ar
    22   11   47 1
    23   12   13 ar
    24   12   48 1
    25   13   14 ar
    26   13   49 1
    27   14   15 ar
    28   14   50 1
    29   15   16 1
    30   16   17 1
    31   17   18 1
    32   17   51 1
    33   17   52 1
    34   18   19 2
    35   18   20 am
    36   20   21 1
    37   20   53 1
    38   21   22 2
    39   22   23 1
    40   22   54 1
    41   23   28 ar
    42   23   24 ar
    43   24   35 1
    44   24   25 ar
    45   25   26 ar
    46   25   33 1
    47   26   27 ar
    48   26   55 1
    49   27   28 ar
    50   27   30 1
    51   28   29 1
    52   30   31 2
    53   30   32 1
    54   33   34 1
    55   34   39 1
    56   34   35 2
    57   35   36 1
    58   36   37 1
    59   36   56 1
    60   36   57 1
    61   37   38 1
    62   37   58 1
    63   37   59 1
    64   38   39 1
    65   38   60 1
    66   38   61 1
    67   39   62 1
    68   39   63 1
@<TRIPOS>MOLECULE
ZINC13044821
   55    59     0     0     0
SMALL
USER_CHARGES

@<TRIPOS>ATOM
      1 C1         -2.5333   -0.9341   -0.7800 C.3       1 <0>        -0.1077
      2 C2         -1.0973   -1.0627   -0.3413 C.2       1 <0>         0.1472
      3 C3          0.0010   -0.8863   -1.1556 C.2       1 <0>        -0.2650
      4 C4          1.1852   -1.1096   -0.3031 C.ar      1 <0>        -0.0611
      5 C5          2.5585   -1.0785   -0.5284 C.ar      1 <0>        -0.0797
      6 C6          3.4261   -1.3409    0.5095 C.ar      1 <0>        -0.1307
      7 C7          2.9358   -1.6352    1.7734 C.ar      1 <0>        -0.1014
      8 C8          1.5789   -1.6692    2.0097 C.ar      1 <0>        -0.1207
      9 C9          0.6868   -1.4066    0.9747 C.ar      1 <0>         0.0877
     10 N1         -0.6911   -1.3617    0.9073 N.pl3     1 <0>        -0.5722
     11 H1         -1.2854   -1.5258    1.6561 H         1 <0>         0.4193
     12 C10        -0.0055   -0.5572   -2.5342 C.2       1 <0>         0.4679
     13 O1         -0.1127   -1.4340   -3.3670 O.2       1 <0>        -0.4323
     14 C11         0.1207    0.8810   -2.9662 C.3       1 <0>        -0.1659
     15 S1         -0.0772    0.9914   -4.7660 S.3       1 <0>         0.0188
     16 C12         0.0941    2.7112   -5.1089 C.2       1 <0>         0.3457
     17 N2          0.3174    3.5282   -4.1093 N.2       1 <0>        -0.5107
     18 C13         0.4592    4.8609   -4.3011 C.ar      1 <0>         0.1371
     19 C14         0.6979    5.7304   -3.2328 C.ar      1 <0>        -0.0711
     20 C15         0.8371    7.0914   -3.4781 C.ar      1 <0>        -0.0883
     21 C16         0.7391    7.5917   -4.7836 C.ar      1 <0>        -0.0936
     22 C17         0.5057    6.7513   -5.8341 C.ar      1 <0>        -0.0635
     23 C18         0.3638    5.3823   -5.6108 C.ar      1 <0>        -0.1982
     24 C19         0.1124    4.4414   -6.7147 C.2       1 <0>         0.5596
     25 O2          0.0203    4.8286   -7.8648 O.2       1 <0>        -0.5152
     26 N3         -0.0067    3.1297   -6.4048 N.am      1 <0>        -0.5242
     27 C20        -0.2513    2.1514   -7.4674 C.3       1 <0>         0.1327
     28 C21        -1.7360    1.9877   -7.6674 C.ar      1 <0>        -0.1172
     29 C22        -2.4304    1.0372   -6.9426 C.ar      1 <0>        -0.0974
     30 C23        -3.7923    0.8870   -7.1260 C.ar      1 <0>        -0.1248
     31 C24        -4.4598    1.6876   -8.0339 C.ar      1 <0>        -0.1113
     32 C25        -3.7656    2.6387   -8.7581 C.ar      1 <0>        -0.1263
     33 C26        -2.4045    2.7918   -8.5715 C.ar      1 <0>        -0.0902
     34 C27         1.0897    8.0176   -2.3542 C.2       1 <0>         0.5199
     35 O3          1.1755    7.5858   -1.2137 O.co2     1 <0>        -0.6774
     36 O4          1.2127    9.2155   -2.5652 O.co2     1 <0>        -0.6779
     37 H2         -2.8876    0.0756   -0.5723 H         1 <0>         0.0907
     38 H3         -2.6055   -1.1317   -1.8495 H         1 <0>         0.0896
     39 H4         -3.1453   -1.6531   -0.2355 H         1 <0>         0.0795
     40 H5          2.9420   -0.8503   -1.5118 H         1 <0>         0.1240
     41 H6          4.4922   -1.3176    0.3382 H         1 <0>         0.1271
     42 H7          3.6244   -1.8400    2.5798 H         1 <0>         0.1280
     43 H8          1.2079   -1.8998    2.9975 H         1 <0>         0.1224
     44 H9         -0.6516    1.4759   -2.4786 H         1 <0>         0.1322
     45 H10         1.1032    1.2601   -2.6847 H         1 <0>         0.1348
     46 H11         0.7733    5.3480   -2.2256 H         1 <0>         0.1437
     47 H12         0.8488    8.6514   -4.9603 H         1 <0>         0.1387
     48 H13         0.4311    7.1464   -6.8364 H         1 <0>         0.1316
     49 H14         0.2038    2.5002   -8.3944 H         1 <0>         0.1106
     50 H15         0.1853    1.1930   -7.1865 H         1 <0>         0.1044
     51 H16        -1.9088    0.4117   -6.2333 H         1 <0>         0.1346
     52 H17        -4.3346    0.1440   -6.5603 H         1 <0>         0.1237
     53 H18        -5.5237    1.5698   -8.1777 H         1 <0>         0.1210
     54 H19        -4.2871    3.2640   -9.4676 H         1 <0>         0.1223
     55 H20        -1.8627    3.5374   -9.1346 H         1 <0>         0.1289
@<TRIPOS>BOND
     1    1    2 1
     2    1   37 1
     3    1   38 1
     4    1   39 1
     5    2   10 1
     6    2    3 2
     7    3    4 1
     8    3   12 1
     9    4    9 ar
    10    4    5 ar
    11    5    6 ar
    12    5   40 1
    13    6    7 ar
    14    6   41 1
    15    7    8 ar
    16    7   42 1
    17    8    9 ar
    18    8   43 1
    19    9   10 1
    20   10   11 1
    21   12   13 2
    22   12   14 1
    23   14   15 1
    24   14   44 1
    25   14   45 1
    26   15   16 1
    27   16   26 1
    28   16   17 2
    29   17   18 1
    30   18   23 ar
    31   18   19 ar
    32   19   20 ar
    33   19   46 1
    34   20   21 ar
    35   20   34 1
    36   21   22 ar
    37   21   47 1
    38   22   23 ar
    39   22   48 1
    40   23   24 1
    41   24   25 2
    42   24   26 am
    43   26   27 1
    44   27   28 1
    45   27   49 1
    46   27   50 1
    47   28   33 ar
    48   28   29 ar
    49   29   30 ar
    50   29   51 1
    51   30   31 ar
    52   30   52 1
    53   31   32 ar
    54   31   53 1
    55   32   33 ar
    56   32   54 1
    57   33   55 1
    58   34   35 2
    59   34   36 1
@<TRIPOS>MOLECULE
ZINC22505920
   66    68     0     0     0
SMALL
USER_CHARGES

@<TRIPOS>ATOM
      1 C1         -0.0392    1.4999   -0.0189 C.3       1 <0>        -0.1395
      2 C2         -0.0210   -0.0264   -0.0211 C.3       1 <0>        -0.0286
      3 H1         -1.0629   -0.3816   -0.0054 H         1 <0>         0.0754
      4 C3          0.6467   -0.5609   -1.2845 C.3       1 <0>        -0.1028
      5 C4          1.9392    0.1912   -1.5907 C.3       1 <0>        -0.1205
      6 C5          2.8245   -0.6673   -2.5015 C.3       1 <0>        -0.1221
      7 C6          4.2871   -0.2583   -2.3162 C.3       1 <0>        -0.1197
      8 C7          4.9646   -1.2078   -1.3268 C.3       1 <0>        -0.1227
      9 C8          5.4124   -0.4279   -0.0895 C.3       1 <0>        -0.1180
     10 C9          5.0638   -1.2206    1.1712 C.3       1 <0>        -0.1206
     11 C10         4.2840   -0.3316    2.1407 C.3       1 <0>        -0.1262
     12 C11         2.8653   -0.8777    2.3127 C.3       1 <0>        -0.0910
     13 C12         1.8551    0.1568    1.8063 C.3       1 <0>        -0.0940
     14 C13         0.6720   -0.5527    1.2053 C.2       1 <0>         0.1014
     15 N1          0.2406   -1.6316    1.7551 N.2       1 <0>        -0.3171
     16 N2          0.8738   -2.1368    2.8982 N.2       1 <0>        -0.4462
     17 C14         0.4156   -3.2828    3.4822 C.2       1 <0>         0.4613
     18 N3         -0.6023   -4.0450    3.1042 N.2       1 <0>        -0.7094
     19 C15        -0.9792   -5.1323    3.7193 C.2       1 <0>         0.5183
     20 O1         -1.9191   -5.8026    3.3382 O.2       1 <0>        -0.5544
     21 C16        -0.1586   -5.5037    4.9486 C.3       1 <0>        -0.1051
     22 H2         -0.7684   -5.4944    5.8521 H         1 <0>         0.1279
     23 S1          1.0509   -4.1140    4.9320 S.3       1 <0>        -0.2277
     24 C17         0.5419   -6.8517    4.7667 C.3       1 <0>        -0.1014
     25 C18         1.2379   -7.2331    6.0477 C.2       1 <0>         0.5166
     26 O2          1.1795   -6.4990    7.0114 O.2       1 <0>        -0.4976
     27 N4          1.9253   -8.3899    6.1226 N.am      1 <0>        -0.6769
     28 C19         2.6514   -8.6988    7.2781 C.ar      1 <0>         0.1593
     29 C20         3.8557   -9.3839    7.1810 C.ar      1 <0>        -0.0979
     30 C21         4.5698   -9.6873    8.3233 C.ar      1 <0>        -0.0973
     31 C22         4.0870   -9.3098    9.5632 C.ar      1 <0>        -0.0777
     32 C23         2.8883   -8.6281    9.6633 C.ar      1 <0>        -0.0294
     33 C24         2.1723   -8.3162    8.5239 C.ar      1 <0>        -0.0638
     34 N5          2.3748   -8.2268   10.9922 N.pl3     1 <0>         0.0337
     35 O3          3.0035   -8.4951   11.9894 O.2       1 <0>        -0.1620
     36 O4          1.3267   -7.6307   11.0805 O.3       1 <0>        -0.1497
     37 H3          0.9839    1.8755   -0.0344 H         1 <0>         0.0576
     38 H4         -0.5711    1.8582   -0.9003 H         1 <0>         0.0538
     39 H5         -0.5435    1.8560    0.8794 H         1 <0>         0.0525
     40 H6          0.8702   -1.6232   -1.1519 H         1 <0>         0.0632
     41 H7         -0.0402   -0.4552   -2.1290 H         1 <0>         0.0562
     42 H8          1.7119    1.1253   -2.1069 H         1 <0>         0.0557
     43 H9          2.4814    0.4022   -0.6720 H         1 <0>         0.0742
     44 H10         2.7007   -1.7171   -2.2430 H         1 <0>         0.0633
     45 H11         2.5319   -0.5096   -3.5394 H         1 <0>         0.0528
     46 H12         4.8013   -0.3095   -3.2764 H         1 <0>         0.0520
     47 H13         4.3337    0.7619   -1.9362 H         1 <0>         0.0643
     48 H14         4.2636   -1.9883   -1.0318 H         1 <0>         0.0681
     49 H15         5.8345   -1.6647   -1.8009 H         1 <0>         0.0526
     50 H16         6.4923   -0.2741   -0.1312 H         1 <0>         0.0514
     51 H17         4.9119    0.5388   -0.0642 H         1 <0>         0.0655
     52 H18         4.4603   -2.0872    0.9026 H         1 <0>         0.0660
     53 H19         5.9834   -1.5598    1.6516 H         1 <0>         0.0497
     54 H20         4.7877   -0.3227    3.1087 H         1 <0>         0.0495
     55 H21         4.2389    0.6850    1.7507 H         1 <0>         0.0580
     56 H22         2.7571   -1.8001    1.7436 H         1 <0>         0.0633
     57 H23         2.6789   -1.0772    3.3679 H         1 <0>         0.0749
     58 H24         1.5223    0.7694    2.6473 H         1 <0>         0.0576
     59 H25         2.3370    0.7933    1.0686 H         1 <0>         0.0606
     60 H26        -0.1957   -7.6132    4.5133 H         1 <0>         0.1163
     61 H27         1.2751   -6.7747    3.9638 H         1 <0>         0.1073
     62 H28         1.9168   -9.0084    5.3754 H         1 <0>         0.4184
     63 H29         4.2331   -9.6793    6.2132 H         1 <0>         0.1464
     64 H30         5.5062  -10.2203    8.2485 H         1 <0>         0.1509
     65 H31         4.6474   -9.5482   10.4551 H         1 <0>         0.1528
     66 H32         1.2385   -7.7792    8.6024 H         1 <0>         0.1704
@<TRIPOS>BOND
     1    1    2 1
     2    1   37 1
     3    1   38 1
     4    1   39 1
     5    2    3 1
     6    2   14 1
     7    2    4 1
     8    4    5 1
     9    4   40 1
    10    4   41 1
    11    5    6 1
    12    5   42 1
    13    5   43 1
    14    6    7 1
    15    6   44 1
    16    6   45 1
    17    7    8 1
    18    7   46 1
    19    7   47 1
    20    8    9 1
    21    8   48 1
    22    8   49 1
    23    9   10 1
    24    9   50 1
    25    9   51 1
    26   10   11 1
    27   10   52 1
    28   10   53 1
    29   11   12 1
    30   11   54 1
    31   11   55 1
    32   12   13 1
    33   12   56 1
    34   12   57 1
    35   13   14 1
    36   13   58 1
    37   13   59 1
    38   14   15 2
    39   15   16 1
    40   16   17 1
    41   17   23 1
    42   17   18 2
    43   18   19 1
    44   19   20 2
    45   19   21 1
    46   21   22 1
    47   21   23 1
    48   21   24 1
    49   24   25 1
    50   24   60 1
    51   24   61 1
    52   25   26 2
    53   25   27 am
    54   27   28 1
    55   27   62 1
    56   28   33 ar
    57   28   29 ar
    58   29   30 ar
    59   29   63 1
    60   30   31 ar
    61   30   64 1
    62   31   32 ar
    63   31   65 1
    64   32   33 ar
    65   32   34 1
    66   33   66 1
    67   34   35 2
    68   34   36 1
@<TRIPOS>MOLECULE
ZINC02899899
   37    39     0     0     0
SMALL
USER_CHARGES
4-[[2-(3-chloro-2-methyl-phenyl)amino-4-oxo-thiazol-5-ylidene]methyl]benzoic acid
@<TRIPOS>ATOM
      1 C1         -2.0781    0.3329   -2.0107 C.3       1 <0>        -0.1223
      2 C2         -1.8861    1.8275   -1.9958 C.ar      1 <0>        -0.1062
      3 C3         -0.6326    2.3651   -1.7324 C.ar      1 <0>         0.1500
      4 C4         -0.4587    3.7431   -1.7253 C.ar      1 <0>        -0.1429
      5 C5         -1.5328    4.5752   -1.9742 C.ar      1 <0>        -0.0871
      6 C6         -2.7808    4.0381   -2.2300 C.ar      1 <0>        -0.1225
      7 C7         -2.9583    2.6653   -2.2376 C.ar      1 <0>        -0.0178
      8 Cl1        -4.5272    1.9953   -2.5592 Cl        1 <0>        -0.0634
      9 N1          0.4527    1.5209   -1.4808 N.pl3     1 <0>        -0.5747
     10 C8          1.6708    2.0518   -1.1495 C.2       1 <0>         0.4485
     11 N2          2.0133    3.3274   -1.0587 N.2       1 <0>        -0.6545
     12 C9          3.2261    3.7109   -0.7286 C.2       1 <0>         0.5510
     13 O1          3.5297    4.8897   -0.6478 O.2       1 <0>        -0.4649
     14 C10         4.2066    2.6276   -0.4589 C.2       1 <0>        -0.2662
     15 C11         5.5120    2.7066   -0.1029 C.2       1 <0>         0.0898
     16 C12         6.3403    1.4927   -0.0728 C.ar      1 <0>        -0.1170
     17 C13         7.6371    1.5422    0.4531 C.ar      1 <0>        -0.0900
     18 C14         8.4064    0.4080    0.4863 C.ar      1 <0>        -0.0847
     19 C15         7.9011   -0.7949   -0.0156 C.ar      1 <0>        -0.0774
     20 C16         6.6089   -0.8442   -0.5465 C.ar      1 <0>        -0.0888
     21 C17         5.8354    0.2872   -0.5752 C.ar      1 <0>        -0.0968
     22 C18         8.7330   -2.0146    0.0155 C.2       1 <0>         0.4844
     23 O2          8.2942   -3.0603   -0.4201 O.co2     1 <0>        -0.6237
     24 S1          3.1774    1.1900   -0.7286 S.3       1 <0>         0.0026
     25 H1         -2.3430   -0.0094   -1.0103 H         1 <0>         0.0811
     26 H2         -2.8772    0.0761   -2.7060 H         1 <0>         0.0831
     27 H3         -1.1529   -0.1491   -2.3264 H         1 <0>         0.0649
     28 H4          0.5156    4.1638   -1.5249 H         1 <0>         0.1951
     29 H5         -1.3976    5.6467   -1.9687 H         1 <0>         0.1381
     30 H6         -3.6189    4.6910   -2.4240 H         1 <0>         0.1346
     31 H7          0.3441    0.5591   -1.5447 H         1 <0>         0.4349
     32 H8          5.9435    3.6615    0.1587 H         1 <0>         0.1596
     33 H9          8.0294    2.4724    0.8368 H         1 <0>         0.1294
     34 H10         9.4048    0.4447    0.8965 H         1 <0>         0.1406
     35 H11         6.2197   -1.7741   -0.9340 H         1 <0>         0.1359
     36 H12         4.8368    0.2487   -0.9848 H         1 <0>         0.1231
     37 O3          9.9785   -1.9677    0.5271 O.co2     1 <0>        -0.7455
@<TRIPOS>BOND
     1    1    2 1
     2    1   25 1
     3    1   26 1
     4    1   27 1
     5    2    7 ar
     6    2    3 ar
     7    3    4 ar
     8    3    9 1
     9    4    5 ar
    10    4   28 1
    11    5    6 ar
    12    5   29 1
    13    6    7 ar
    14    6   30 1
    15    7    8 1
    16    9   10 1
    17    9   31 1
    18   10   24 1
    19   10   11 2
    20   11   12 1
    21   12   13 2
    22   12   14 1
    23   14   15 2
    24   14   24 1
    25   15   16 1
    26   15   32 1
    27   16   21 ar
    28   16   17 ar
    29   17   18 ar
    30   17   33 1
    31   18   19 ar
    32   18   34 1
    33   19   20 ar
    34   19   22 1
    35   20   21 ar
    36   20   35 1
    37   21   36 1
    38   22   23 2
    39   22   37 1
@<TRIPOS>MOLECULE
ZINC35306531
   26    27     0     0     0
SMALL
USER_CHARGES

@<TRIPOS>ATOM
      1 C1         -0.0166    1.3764    0.0096 C.2       1 <0>        -0.2135
      2 C2          1.1570    2.0510    0.0020 C.2       1 <0>        -0.2539
      3 S1          2.3313    0.8504   -0.0156 S.3       1 <0>         0.2200
      4 C3          1.2743   -0.5850   -0.0133 C.2       1 <0>        -0.1792
      5 C4          0.0021   -0.0041    0.0020 C.2       1 <0>         0.1321
      6 N1         -1.1618   -0.7634    0.0095 N.pl3     1 <0>        -1.0042
      7 S2         -2.5050   -0.2277   -0.7974 S.o2      1 <0>         2.6829
      8 O1         -3.5053   -1.2225   -0.6262 O.2       1 <0>        -0.9332
      9 O2         -2.7009    1.1246   -0.4074 O.2       1 <0>        -0.9368
     10 C5         -2.1069   -0.2042   -2.5137 C.ar      1 <0>        -0.6698
     11 C6         -1.5584    0.9321   -3.0810 C.ar      1 <0>         0.0752
     12 C7         -1.2458    0.9506   -4.4285 C.ar      1 <0>        -0.1262
     13 C8         -1.4813   -0.1673   -5.2086 C.ar      1 <0>         0.0379
     14 C9         -2.0289   -1.3039   -4.6411 C.ar      1 <0>        -0.1249
     15 C10        -2.3375   -1.3239   -3.2927 C.ar      1 <0>         0.0820
     16 Cl1        -3.0192   -2.7522   -2.5793 Cl        1 <0>         0.0078
     17 Cl2        -1.0900   -0.1437   -6.8997 Cl        1 <0>        -0.0358
     18 Cl3        -1.2630    2.3350   -2.1020 Cl        1 <0>         0.0085
     19 C11         1.6278   -1.9475   -0.0243 C.2       1 <0>         0.4960
     20 O3          2.9124   -2.3027   -0.0385 O.co2     1 <0>        -0.6922
     21 O4          0.6778   -2.8825   -0.0207 O.co2     1 <0>        -0.6819
     22 H1         -0.9550    1.9109    0.0259 H         1 <0>         0.1681
     23 H2          1.3050    3.1208    0.0060 H         1 <0>         0.1810
     24 H3         -1.1874   -1.6071    0.4874 H         1 <0>         0.4419
     25 H4         -0.8183    1.8379   -4.8715 H         1 <0>         0.1587
     26 H5         -2.2127   -2.1767   -5.2501 H         1 <0>         0.1597
@<TRIPOS>BOND
     1    1    5 1
     2    1    2 2
     3    1   22 1
     4    2    3 1
     5    2   23 1
     6    3    4 1
     7    4    5 2
     8    4   19 1
     9    5    6 1
    10    6    7 1
    11    6   24 1
    12    7    8 2
    13    7    9 2
    14    7   10 1
    15   10   15 ar
    16   10   11 ar
    17   11   12 ar
    18   11   18 1
    19   12   13 ar
    20   12   25 1
    21   13   14 ar
    22   13   17 1
    23   14   15 ar
    24   14   26 1
    25   15   16 1
    26   19   20 2
    27   19   21 1
@<TRIPOS>MOLECULE
ZINC41628444
   39    41     0     0     0
SMALL
USER_CHARGES

@<TRIPOS>ATOM
      1 C1          1.0710   -0.4537   -0.7663 C.ar      1 <0>        -0.1012
      2 C2          2.2568    0.2554   -0.7798 C.ar      1 <0>        -0.1023
      3 C3          2.3803    1.4141   -0.0334 C.ar      1 <0>         0.0573
      4 C4          1.3138    1.8664    0.7296 C.ar      1 <0>         0.0908
      5 C5          0.1256    1.1593    0.7449 C.ar      1 <0>        -0.1514
      6 C6          0.0017   -0.0036   -0.0037 C.ar      1 <0>         0.1648
      7 N1         -1.2005   -0.7214    0.0101 N.am      1 <0>        -0.6629
      8 C7         -1.1847   -2.0646   -0.0990 C.2       1 <0>         0.5364
      9 O1         -0.1278   -2.6595   -0.1128 O.2       1 <0>        -0.4965
     10 C8         -2.4801   -2.8274   -0.2038 C.3       1 <0>        -0.1427
     11 S1         -2.1279   -4.6019   -0.3370 S.3       1 <0>         0.0779
     12 C9         -3.7214   -5.3454   -0.4500 C.2       1 <0>         0.3510
     13 N2         -3.8241   -6.6992   -0.5582 N.am      1 <0>        -0.6150
     14 H1         -3.0263   -7.2509   -0.5672 H         1 <0>         0.4220
     15 C10        -5.0434   -7.2662   -0.6523 C.2       1 <0>         0.5306
     16 O2         -5.1556   -8.4768   -0.7555 O.2       1 <0>        -0.5265
     17 C11        -6.1883   -6.4417   -0.6295 C.2       1 <0>        -0.2425
     18 C12        -6.0278   -5.0982   -0.5116 C.2       1 <0>         0.1885
     19 N3         -4.7952   -4.5850   -0.4232 N.2       1 <0>        -0.5467
     20 C13        -7.1908   -4.1426   -0.4594 C.3       1 <0>        -0.0701
     21 C14        -8.4584   -4.8087   -0.9911 C.3       1 <0>        -0.1211
     22 C15        -8.6381   -6.1508   -0.2714 C.3       1 <0>        -0.1216
     23 C16        -7.5368   -7.0993   -0.7424 C.3       1 <0>        -0.0537
     24 F1          1.4361    2.9976    1.4581 F         1 <0>        -0.1225
     25 F2          3.5410    2.1053   -0.0474 F         1 <0>        -0.1254
     26 H2          0.9744   -1.3556   -1.3525 H         1 <0>         0.1530
     27 H3          3.0882   -0.0952   -1.3732 H         1 <0>         0.1536
     28 H4         -0.7050    1.5108    1.3390 H         1 <0>         0.1520
     29 H5         -2.0447   -0.2518    0.0982 H         1 <0>         0.4202
     30 H6         -3.0835   -2.6425    0.6850 H         1 <0>         0.1373
     31 H7         -3.0254   -2.4978   -1.0882 H         1 <0>         0.1385
     32 H8         -7.3541   -3.8314    0.5723 H         1 <0>         0.0915
     33 H9         -6.9635   -3.2665   -1.0667 H         1 <0>         0.0900
     34 H10        -9.3190   -4.1691   -0.7952 H         1 <0>         0.0776
     35 H11        -8.3623   -4.9773   -2.0636 H         1 <0>         0.0695
     36 H12        -8.5600   -6.0033    0.8058 H         1 <0>         0.0672
     37 H13        -9.6138   -6.5708   -0.5155 H         1 <0>         0.0752
     38 H14        -7.7178   -7.3721   -1.7821 H         1 <0>         0.0767
     39 H15        -7.5505   -7.9993   -0.1277 H         1 <0>         0.0804
@<TRIPOS>BOND
     1    1    6 ar
     2    1    2 ar
     3    1   26 1
     4    2    3 ar
     5    2   27 1
     6    3    4 ar
     7    3   25 1
     8    4    5 ar
     9    4   24 1
    10    5    6 ar
    11    5   28 1
    12    6    7 1
    13    7    8 am
    14    7   29 1
    15    8    9 2
    16    8   10 1
    17   10   11 1
    18   10   30 1
    19   10   31 1
    20   11   12 1
    21   12   19 2
    22   12   13 1
    23   13   14 1
    24   13   15 am
    25   15   16 2
    26   15   17 1
    27   17   23 1
    28   17   18 2
    29   18   19 1
    30   18   20 1
    31   20   21 1
    32   20   32 1
    33   20   33 1
    34   21   22 1
    35   21   34 1
    36   21   35 1
    37   22   23 1
    38   22   36 1
    39   22   37 1
    40   23   38 1
    41   23   39 1
@<TRIPOS>MOLECULE
ZINC53574317
   48    51     0     0     0
SMALL
USER_CHARGES

@<TRIPOS>ATOM
      1 C1         -0.0184    1.5028    0.0103 C.3       1 <0>        -0.0729
      2 C2          0.0021   -0.0041    0.0020 C.2       1 <0>         0.1081
      3 C3          0.0058   -0.7049   -1.1572 C.2       1 <0>        -0.2666
      4 S1          0.0316   -2.3783   -0.5355 S.3       1 <0>         0.0049
      5 C4          0.0349   -2.0164    1.1081 C.2       1 <0>         0.2777
      6 S2          0.0572   -3.1289    2.4743 S.3       1 <0>        -0.7536
      7 N1          0.0227   -0.6998    1.1250 N.2       1 <0>        -0.5746
      8 C5         -0.0084   -0.2087   -2.5801 C.3       1 <0>        -0.0261
      9 C6          1.4075   -0.0236   -3.0617 C.2       1 <0>         0.5098
     10 O1          2.3367   -0.2703   -2.3224 O.2       1 <0>        -0.5166
     11 N2          1.6412    0.4162   -4.3141 N.am      1 <0>        -0.7330
     12 C7          3.0177    0.5961   -4.7823 C.3       1 <0>         0.1534
     13 H1          3.6538   -0.1732   -4.3447 H         1 <0>         0.0856
     14 C8          3.5235    1.9770   -4.3603 C.3       1 <0>        -0.1660
     15 C9          3.0564    0.4831   -6.3076 C.3       1 <0>        -0.0573
     16 C10         2.1635    1.5630   -6.9219 C.3       1 <0>        -0.1043
     17 C11         2.2022    1.4499   -8.4473 C.3       1 <0>        -0.0852
     18 C12         3.6398    1.6378   -8.9363 C.3       1 <0>        -0.1071
     19 C13         4.5327    0.5579   -8.3219 C.3       1 <0>        -0.0847
     20 C14         4.4940    0.6710   -6.7966 C.3       1 <0>        -0.1022
     21 C15         4.0269   -0.8230   -8.7440 C.3       1 <0>        -0.1084
     22 C16         2.5894   -1.0109   -8.2550 C.3       1 <0>        -0.0859
     23 C17         1.6964    0.0690   -8.8693 C.3       1 <0>        -0.1078
     24 C18         2.5506   -0.8979   -6.7297 C.3       1 <0>        -0.1020
     25 H2          1.0042    1.8801    0.0026 H         1 <0>         0.0639
     26 H3         -0.5455    1.8639   -0.8728 H         1 <0>         0.0597
     27 H4         -0.5286    1.8543    0.9071 H         1 <0>         0.0652
     28 H5         -0.5155   -0.9364   -3.2137 H         1 <0>         0.0941
     29 H6         -0.5358    0.7441   -2.6274 H         1 <0>         0.1002
     30 H7          0.8981    0.6135   -4.9055 H         1 <0>         0.3949
     31 H8          2.8874    2.7464   -4.7979 H         1 <0>         0.0578
     32 H9          3.4959    2.0576   -3.2736 H         1 <0>         0.0608
     33 H10         4.5476    2.1109   -4.7086 H         1 <0>         0.0637
     34 H11         1.1394    1.4291   -6.5736 H         1 <0>         0.0605
     35 H12         2.5239    2.5467   -6.6213 H         1 <0>         0.0683
     36 H13         1.5661    2.2192   -8.8849 H         1 <0>         0.0680
     37 H14         3.6674    1.5573  -10.0229 H         1 <0>         0.0593
     38 H15         4.0001    2.6216   -8.6356 H         1 <0>         0.0606
     39 H16         5.5568    0.6918   -8.6703 H         1 <0>         0.0684
     40 H17         4.8543    1.6548   -6.4960 H         1 <0>         0.0679
     41 H18         5.1301   -0.0983   -6.3590 H         1 <0>         0.0642
     42 H19         4.0545   -0.9036   -9.8307 H         1 <0>         0.0592
     43 H20         4.6630   -1.5923   -8.3063 H         1 <0>         0.0613
     44 H21         2.2290   -1.9947   -8.5557 H         1 <0>         0.0684
     45 H22         0.6723   -0.0649   -8.5210 H         1 <0>         0.0614
     46 H23         1.7240   -0.0116   -9.9560 H         1 <0>         0.0593
     47 H24         3.1868   -1.6672   -6.2920 H         1 <0>         0.0631
     48 H25         1.5265   -1.0317   -6.3813 H         1 <0>         0.0646
@<TRIPOS>BOND
     1    1    2 1
     2    1   25 1
     3    1   26 1
     4    1   27 1
     5    2    7 1
     6    2    3 2
     7    3    4 1
     8    3    8 1
     9    4    5 1
    10    5    6 1
    11    5    7 2
    12    8    9 1
    13    8   28 1
    14    8   29 1
    15    9   10 2
    16    9   11 am
    17   11   12 1
    18   11   30 1
    19   12   13 1
    20   12   14 1
    21   12   15 1
    22   14   31 1
    23   14   32 1
    24   14   33 1
    25   15   20 1
    26   15   24 1
    27   15   16 1
    28   16   17 1
    29   16   34 1
    30   16   35 1
    31   17   23 1
    32   17   18 1
    33   17   36 1
    34   18   19 1
    35   18   37 1
    36   18   38 1
    37   19   20 1
    38   19   21 1
    39   19   39 1
    40   20   40 1
    41   20   41 1
    42   21   22 1
    43   21   42 1
    44   21   43 1
    45   22   23 1
    46   22   24 1
    47   22   44 1
    48   23   45 1
    49   23   46 1
    50   24   47 1
    51   24   48 1
@<TRIPOS>MOLECULE
ZINC62826445
   29    30     0     0     0
SMALL
USER_CHARGES

@<TRIPOS>ATOM
      1 C1         -0.0177    1.3760    0.0438 C.ar      1 <0>        -0.1420
      2 C2          1.0316    1.8313    0.8113 C.ar      1 <0>        -0.0607
      3 C3          2.2575    1.1588    0.7864 C.ar      1 <0>        -0.1466
      4 C4          2.4078    0.0212   -0.0240 C.ar      1 <0>         0.1978
      5 C5          1.3373   -0.4223   -0.7909 C.ar      1 <0>        -0.1023
      6 C6          0.1336    0.2534   -0.7547 C.ar      1 <0>        -0.0888
      7 Br1         1.5290   -1.9525   -1.8852 Br        1 <0>        -0.0404
      8 N1          3.6211   -0.6570   -0.0589 N.am      1 <0>        -0.6347
      9 C7          3.6525   -1.9918    0.1247 C.2       1 <0>         0.5322
     10 O1          2.6123   -2.6177    0.2232 O.2       1 <0>        -0.5162
     11 C8          4.8925   -2.6653    0.2029 C.2       1 <0>        -0.1650
     12 C9          4.9242   -4.0100    0.3878 C.2       1 <0>        -0.0044
     13 C10         6.1653   -4.6841    0.4662 C.2       1 <0>        -0.1409
     14 C11         6.4166   -6.0406    0.6444 C.2       1 <0>        -0.1338
     15 C12         7.7413   -6.4005    0.6801 C.2       1 <0>        -0.1264
     16 C13         8.6905   -5.4390    0.5434 C.2       1 <0>        -0.2561
     17 S1          7.8150   -4.0178    0.3544 S.3       1 <0>         0.2548
     18 Br2        10.5694   -5.6523    0.5555 Br        1 <0>         0.0313
     19 C14         3.3826    1.6398    1.6032 C.2       1 <0>         0.5248
     20 O2          3.2821    2.6880    2.2261 O.co2     1 <0>        -0.6800
     21 O3          4.4187    0.9916    1.6596 O.co2     1 <0>        -0.6797
     22 H1         -0.9650    1.8942    0.0678 H         1 <0>         0.1250
     23 H2          0.9078    2.7069    1.4313 H         1 <0>         0.1354
     24 H3         -0.6956   -0.0954   -1.3524 H         1 <0>         0.1258
     25 H4          4.4449   -0.1694   -0.2153 H         1 <0>         0.4211
     26 H5          5.8149   -2.1104    0.1156 H         1 <0>         0.1271
     27 H6          4.0018   -4.5649    0.4751 H         1 <0>         0.1538
     28 H7          5.6213   -6.7638    0.7483 H         1 <0>         0.1507
     29 H8          8.0244   -7.4339    0.8154 H         1 <0>         0.1380
@<TRIPOS>BOND
     1    1    6 ar
     2    1    2 ar
     3    1   22 1
     4    2    3 ar
     5    2   23 1
     6    3    4 ar
     7    3   19 1
     8    4    5 ar
     9    4    8 1
    10    5    6 ar
    11    5    7 1
    12    6   24 1
    13    8    9 am
    14    8   25 1
    15    9   10 2
    16    9   11 1
    17   11   12 2
    18   11   26 1
    19   12   13 1
    20   12   27 1
    21   13   17 1
    22   13   14 2
    23   14   15 1
    24   14   28 1
    25   15   16 2
    26   15   29 1
    27   16   17 1
    28   16   18 1
    29   19   20 2
    30   19   21 1
@<TRIPOS>MOLECULE
ZINC67601555
   40    42     0     0     0
SMALL
USER_CHARGES

@<TRIPOS>ATOM
      1 C1          0.0350    1.7457    1.1545 C.2       1 <0>        -0.1495
      2 C2          1.1905    2.1132    0.5088 C.2       1 <0>        -0.1287
      3 C3          2.4029    1.7493    1.0703 C.2       1 <0>        -0.0543
      4 S1          1.8795    0.8734    2.5354 S.3       1 <0>         0.0816
      5 C4          0.1161    1.0418    2.3154 C.2       1 <0>        -0.1845
      6 C5          3.7631    2.0145    0.5871 C.2       1 <0>         0.1005
      7 N1          4.1561    2.6733   -0.5035 N.2       1 <0>        -0.4790
      8 C6          5.4161    2.8230   -0.7931 C.2       1 <0>         0.0433
      9 C7          6.3774    2.2801    0.0596 C.2       1 <0>        -0.1114
     10 S2          5.3298    1.5459    1.3097 S.3       1 <0>         0.1422
     11 C8          7.7863    2.3066   -0.0354 C.2       1 <0>         0.4184
     12 O1          8.4314    3.4847   -0.1816 O.3       1 <0>        -0.6201
     13 C9          8.5137    1.1135    0.0219 C.2       1 <0>        -0.4082
     14 C10         9.9438    1.1491    0.0854 C.1       1 <0>         0.3187
     15 N2         11.0784    1.1773    0.1358 N.1       1 <0>        -0.5297
     16 C11         7.8134   -0.1711    0.0170 C.2       1 <0>         0.5923
     17 O2          6.6082   -0.2069   -0.1527 O.2       1 <0>        -0.5717
     18 N3          8.5023   -1.3149    0.2003 N.am      1 <0>        -0.7409
     19 C12         7.8011   -2.6012    0.1953 C.3       1 <0>         0.1529
     20 C13         7.2452   -2.8843    1.5924 C.3       1 <0>        -0.1291
     21 C14         6.5129   -4.2277    1.5872 C.3       1 <0>        -0.1157
     22 C15         7.4878   -5.3385    1.1915 C.3       1 <0>        -0.1198
     23 C16         8.0437   -5.0553   -0.2056 C.3       1 <0>        -0.1139
     24 C17         8.7760   -3.7120   -0.2004 C.3       1 <0>        -0.1276
     25 H1         -0.9277    2.0167    0.7469 H         1 <0>         0.1364
     26 H2          1.1542    2.6722   -0.4146 H         1 <0>         0.1421
     27 H3         -0.6830    0.6774    2.9440 H         1 <0>         0.1874
     28 H4          5.7133    3.3599   -1.6818 H         1 <0>         0.1696
     29 H5          9.4624   -1.2864    0.3355 H         1 <0>         0.3912
     30 H6          6.9809   -2.5651   -0.5216 H         1 <0>         0.0836
     31 H7          8.0654   -2.9204    2.3094 H         1 <0>         0.0583
     32 H8          6.5507   -2.0930    1.8743 H         1 <0>         0.0704
     33 H9          6.1168   -4.4294    2.5825 H         1 <0>         0.0600
     34 H10         5.6927   -4.1916    0.8702 H         1 <0>         0.0626
     35 H11         8.3080   -5.3746    1.9084 H         1 <0>         0.0600
     36 H12         6.9661   -6.2955    1.1878 H         1 <0>         0.0586
     37 H13         8.7382   -5.8467   -0.4875 H         1 <0>         0.0613
     38 H14         7.2235   -5.0193   -0.9226 H         1 <0>         0.0633
     39 H15         9.1721   -3.5102   -1.1957 H         1 <0>         0.0658
     40 H16         9.5962   -3.7480    0.5166 H         1 <0>         0.0636
@<TRIPOS>BOND
     1    1    5 2
     2    1    2 1
     3    1   25 1
     4    2    3 2
     5    2   26 1
     6    3    4 1
     7    3    6 1
     8    4    5 1
     9    5   27 1
    10    6   10 1
    11    6    7 2
    12    7    8 1
    13    8    9 2
    14    8   28 1
    15    9   10 1
    16    9   11 1
    17   11   12 1
    18   11   13 2
    19   13   14 1
    20   13   16 1
    21   14   15 3
    22   16   17 2
    23   16   18 am
    24   18   19 1
    25   18   29 1
    26   19   24 1
    27   19   20 1
    28   19   30 1
    29   20   21 1
    30   20   31 1
    31   20   32 1
    32   21   22 1
    33   21   33 1
    34   21   34 1
    35   22   23 1
    36   22   35 1
    37   22   36 1
    38   23   24 1
    39   23   37 1
    40   23   38 1
    41   24   39 1
    42   24   40 1
@<TRIPOS>MOLECULE
ZINC13458380
   47    49     0     0     0
SMALL
USER_CHARGES
4-[(N'E)-N'-[[5-[4-(dimethylsulfamoyl)phenyl]-2-furyl]methylene]hydrazino]benzoic acid
@<TRIPOS>ATOM
      1 C1         -6.5643    9.1176   -2.2084 C.3       1 <0>         0.0920
      2 N1         -5.3093    9.4114   -1.5120 N.pl3     1 <0>        -1.0049
      3 C2         -4.2289   10.1098   -2.2128 C.3       1 <0>         0.0826
      4 S1         -5.1119    8.9539    0.0672 S.o2      1 <0>         2.6921
      5 O1         -6.4149    8.8383    0.6224 O.2       1 <0>        -0.9536
      6 O2         -4.1225    9.8123    0.6181 O.2       1 <0>        -0.9510
      7 C3         -4.4229    7.3322    0.0577 C.ar      1 <0>        -0.6794
      8 C4         -3.0489    7.1678    0.0518 C.ar      1 <0>        -0.0133
      9 C5         -2.5026    5.9014    0.0439 C.ar      1 <0>        -0.1224
     10 C6         -3.3399    4.7832    0.0417 C.ar      1 <0>         0.0464
     11 C7         -4.7261    4.9567    0.0422 C.ar      1 <0>        -0.1224
     12 C8         -5.2584    6.2291    0.0555 C.ar      1 <0>        -0.0172
     13 C9         -2.7627    3.4247    0.0327 C.2       1 <0>         0.0114
     14 C10        -3.4712    2.2602    0.0297 C.2       1 <0>        -0.1682
     15 C11        -2.5407    1.2122    0.0151 C.2       1 <0>        -0.1811
     16 C12        -1.2905    1.7907    0.0179 C.2       1 <0>         0.0651
     17 O3         -1.4484    3.1298    0.0255 O.3       1 <0>        -0.1462
     18 C13        -0.0126    1.0758    0.0080 C.2       1 <0>         0.0753
     19 N2          1.1061    1.7422    0.0009 N.2       1 <0>        -0.1933
     20 N3          2.3288    1.0583   -0.0145 N.pl3     1 <0>        -0.5652
     21 C14         3.5214    1.7686   -0.0221 C.ar      1 <0>         0.1857
     22 C15         3.5008    3.1619   -0.0202 C.ar      1 <0>        -0.1669
     23 C16         4.6728    3.8636   -0.0227 C.ar      1 <0>        -0.0449
     24 C17         5.8944    3.1821   -0.0376 C.ar      1 <0>        -0.1446
     25 C18         5.9118    1.7833   -0.0448 C.ar      1 <0>        -0.0512
     26 C19         4.7366    1.0870   -0.0373 C.ar      1 <0>        -0.1862
     27 C20         7.1604    3.9362   -0.0451 C.2       1 <0>         0.4906
     28 O4          8.2209    3.3430   -0.0577 O.co2     1 <0>        -0.6358
     29 H1         -7.2583    9.9469   -2.0719 H         1 <0>         0.0619
     30 H2         -6.3664    8.9805   -3.2715 H         1 <0>         0.0751
     31 H3         -7.0018    8.2067   -1.7999 H         1 <0>         0.0719
     32 H4         -3.3819   10.2381   -1.5387 H         1 <0>         0.0874
     33 H5         -3.9189    9.5242   -3.0783 H         1 <0>         0.0641
     34 H6         -4.5819   11.0869   -2.5428 H         1 <0>         0.0684
     35 H7         -2.4028    8.0332    0.0532 H         1 <0>         0.1458
     36 H8         -1.4301    5.7745    0.0390 H         1 <0>         0.1430
     37 H9         -5.3793    4.0967    0.0361 H         1 <0>         0.1396
     38 H10        -6.3298    6.3647    0.0601 H         1 <0>         0.1450
     39 H11        -4.5469    2.1633    0.0336 H         1 <0>         0.1576
     40 H12        -2.7612    0.1550    0.0059 H         1 <0>         0.1607
     41 H13         0.0021   -0.0041    0.0020 H         1 <0>         0.1463
     42 H14         2.3419    0.0884   -0.0198 H         1 <0>         0.3898
     43 H15         2.5574    3.6875   -0.0125 H         1 <0>         0.1260
     44 H16         4.6562    4.9435   -0.0167 H         1 <0>         0.1333
     45 H17         6.8534    1.2545   -0.0559 H         1 <0>         0.1309
     46 H18         4.7494    0.0071   -0.0429 H         1 <0>         0.1169
     47 O5          7.1421    5.2838   -0.0382 O.co2     1 <0>        -0.7573
@<TRIPOS>BOND
     1    1    2 1
     2    1   29 1
     3    1   30 1
     4    1   31 1
     5    2    3 1
     6    2    4 1
     7    3   32 1
     8    3   33 1
     9    3   34 1
    10    4    5 2
    11    4    6 2
    12    4    7 1
    13    7   12 ar
    14    7    8 ar
    15    8    9 ar
    16    8   35 1
    17    9   10 ar
    18    9   36 1
    19   10   11 ar
    20   10   13 1
    21   11   12 ar
    22   11   37 1
    23   12   38 1
    24   13   17 1
    25   13   14 2
    26   14   15 1
    27   14   39 1
    28   15   16 2
    29   15   40 1
    30   16   17 1
    31   16   18 1
    32   18   19 2
    33   18   41 1
    34   19   20 1
    35   20   21 1
    36   20   42 1
    37   21   26 ar
    38   21   22 ar
    39   22   23 ar
    40   22   43 1
    41   23   24 ar
    42   23   44 1
    43   24   25 ar
    44   24   27 1
    45   25   26 ar
    46   25   45 1
    47   26   46 1
    48   27   28 2
    49   27   47 1
@<TRIPOS>MOLECULE
ZINC35697532
   49    51     0     0     0
SMALL
USER_CHARGES

@<TRIPOS>ATOM
      1 C1          2.9876   -1.0558    2.3675 C.3       1 <0>        -0.1476
      2 C2          2.7911    0.4575    2.4776 C.3       1 <0>        -0.1296
      3 C3          3.6857    1.1635    1.4567 C.3       1 <0>         0.1557
      4 H1          4.7192    0.8479    1.5995 H         1 <0>         0.0805
      5 C4          3.5836    2.6778    1.6500 C.3       1 <0>        -0.1587
      6 N1          3.2510    0.8137    0.1021 N.pl3     1 <0>        -0.7474
      7 C5          4.1536    0.8555   -0.9471 C.2       1 <0>         0.5045
      8 O1          5.4614    1.1172   -0.7060 O.3       1 <0>        -0.7022
      9 C6          3.7320    0.6361   -2.2074 C.2       1 <0>        -0.4694
     10 C7          4.6654    0.7917   -3.3323 C.2       1 <0>         0.2312
     11 C8          5.9744    1.0543   -3.1239 C.2       1 <0>        -0.3048
     12 S1          6.6034    1.1366   -4.7889 S.3       1 <0>         0.1456
     13 C9          5.1757    0.8352   -5.6183 C.2       1 <0>         0.3204
     14 N2          4.9164    0.7517   -6.9070 N.2       1 <0>        -0.5942
     15 C10         3.7233    0.5039   -7.4224 C.2       1 <0>         0.3054
     16 C11         2.6313    0.3095   -6.5984 C.2       1 <0>        -0.3970
     17 C12         2.8520    0.3905   -5.1044 C.3       1 <0>         0.3046
     18 H2          2.1989    1.1693   -4.7105 H         1 <0>         0.0872
     19 N3          4.2368    0.6689   -4.6390 N.pl3     1 <0>        -0.5149
     20 C13         2.4201   -0.9207   -4.5000 C.2       1 <0>        -0.1148
     21 C14         1.2939   -1.2097   -3.8033 C.2       1 <0>        -0.1392
     22 C15         1.1049   -2.4978   -3.3389 C.2       1 <0>        -0.1472
     23 C16         2.0514   -3.4340   -3.5939 C.2       1 <0>        -0.1924
     24 S2          3.2554   -2.4983   -4.5224 S.3       1 <0>         0.0391
     25 C17         1.3625    0.0468   -7.1290 C.2       1 <0>         0.5356
     26 O2          1.2075   -0.0136   -8.3364 O.2       1 <0>        -0.5494
     27 O3          0.3098   -0.1397   -6.3024 O.3       1 <0>        -0.3555
     28 C18        -0.9552   -0.4036   -6.9124 C.3       1 <0>         0.0418
     29 C19         3.5542    0.4335   -8.9182 C.3       1 <0>        -0.0918
     30 H3          2.7219   -1.3846    1.3629 H         1 <0>         0.0576
     31 H4          4.0306   -1.3022    2.5665 H         1 <0>         0.0527
     32 H5          2.3503   -1.5588    3.0949 H         1 <0>         0.0456
     33 H6          1.7482    0.7039    2.2786 H         1 <0>         0.0580
     34 H7          3.0569    0.7863    3.4823 H         1 <0>         0.0652
     35 H8          4.2853    3.1775    0.9821 H         1 <0>         0.0601
     36 H9          2.5692    3.0055    1.4225 H         1 <0>         0.0454
     37 H10         3.8235    2.9292    2.6831 H         1 <0>         0.0486
     38 H11         2.3309    0.5528   -0.0598 H         1 <0>         0.3827
     39 H12         2.7081    0.3459   -2.3914 H         1 <0>         0.0894
     40 H13         6.5024    1.1814   -2.1904 H         1 <0>         0.2387
     41 H14         0.5554   -0.4448   -3.6135 H         1 <0>         0.1280
     42 H15         0.2165   -2.7544   -2.7809 H         1 <0>         0.1253
     43 H16         2.0703   -4.4764   -3.3121 H         1 <0>         0.1773
     44 H17        -1.2311    0.4335   -7.5536 H         1 <0>         0.0512
     45 H18        -0.8877   -1.3125   -7.5103 H         1 <0>         0.0510
     46 H19        -1.7118   -0.5332   -6.1385 H         1 <0>         0.0891
     47 H20         4.5151    0.6109   -9.4013 H         1 <0>         0.0649
     48 H21         3.1846   -0.5536   -9.1960 H         1 <0>         0.0867
     49 H22         2.8405    1.1923   -9.2392 H         1 <0>         0.0871
@<TRIPOS>BOND
     1    1    2 1
     2    1   30 1
     3    1   31 1
     4    1   32 1
     5    2    3 1
     6    2   33 1
     7    2   34 1
     8    3    4 1
     9    3    5 1
    10    3    6 1
    11    5   35 1
    12    5   36 1
    13    5   37 1
    14    6    7 1
    15    6   38 1
    16    7    8 1
    17    7    9 2
    18    9   10 1
    19    9   39 1
    20   10   19 1
    21   10   11 2
    22   11   12 1
    23   11   40 1
    24   12   13 1
    25   13   19 1
    26   13   14 2
    27   14   15 1
    28   15   16 2
    29   15   29 1
    30   16   17 1
    31   16   25 1
    32   17   18 1
    33   17   19 1
    34   17   20 1
    35   20   24 1
    36   20   21 2
    37   21   22 1
    38   21   41 1
    39   22   23 2
    40   22   42 1
    41   23   24 1
    42   23   43 1
    43   25   26 2
    44   25   27 1
    45   27   28 1
    46   28   44 1
    47   28   45 1
    48   28   46 1
    49   29   47 1
    50   29   48 1
    51   29   49 1
@<TRIPOS>MOLECULE
ZINC39670353
   35    37     0     0     0
SMALL
USER_CHARGES

@<TRIPOS>ATOM
      1 C1         -0.0169    1.3947    0.0097 C.ar      1 <0>        -0.0411
      2 C2          1.1688    2.0968    0.0022 C.ar      1 <0>        -0.1603
      3 C3          2.3789    1.4198   -0.0135 C.ar      1 <0>         0.1258
      4 C4          2.4048    0.0334   -0.0216 C.ar      1 <0>        -0.1543
      5 C5          1.2263   -0.6808   -0.0138 C.ar      1 <0>        -0.0539
      6 C6          0.0021   -0.0041    0.0020 C.ar      1 <0>        -0.0606
      7 C7         -1.2597   -0.7600    0.0105 C.2       1 <0>         0.1612
      8 N1         -2.4697   -0.2718    0.0194 N.2       1 <0>        -0.3045
      9 N2         -3.4387   -1.2697    0.0257 N.2       1 <0>        -0.3032
     10 C8         -2.9266   -2.4573    0.0213 C.2       1 <0>         0.1011
     11 C9         -1.4230   -2.2671    0.0040 C.3       1 <0>        -0.0735
     12 H1         -0.9898   -2.6966   -0.8993 H         1 <0>         0.1525
     13 C10        -0.7994   -2.8742    1.2343 C.2       1 <0>         0.0586
     14 N3          0.1497   -3.7253    1.1173 N.2       1 <0>        -0.1946
     15 N4          0.7294   -4.2897    2.2611 N.pl3     1 <0>        -0.5671
     16 C11         1.7621   -5.2157    2.1338 C.ar      1 <0>         0.2577
     17 C12         2.1389   -6.0203    3.2114 C.ar      1 <0>        -0.1072
     18 C13         3.1762   -6.9334    3.0408 C.ar      1 <0>         0.1464
     19 N5          3.8004   -7.0391    1.8705 N.ar      1 <0>        -0.4325
     20 C14         3.4683   -6.2951    0.8373 C.ar      1 <0>         0.2040
     21 C15         2.4415   -5.3665    0.9264 C.ar      1 <0>        -0.1193
     22 Cl1         2.0117   -4.3986   -0.4492 Cl        1 <0>        -0.0252
     23 Cl2         4.3238   -6.4827   -0.6615 Cl        1 <0>        -0.0185
     24 C16         3.5880   -7.7928    4.1701 C.2       1 <0>         0.5310
     25 O1          3.0185   -7.7002    5.2481 O.co2     1 <0>        -0.6463
     26 O2          4.4982   -8.5965    4.0265 O.co2     1 <0>        -0.6457
     27 Cl3         1.3270   -5.8839    4.7398 Cl        1 <0>        -0.0068
     28 F1          3.5379    2.1141   -0.0213 F         1 <0>        -0.1328
     29 H2         -0.9587    1.9231    0.0260 H         1 <0>         0.1465
     30 H3          1.1556    3.1767    0.0081 H         1 <0>         0.1440
     31 H4          3.3506   -0.4878   -0.0346 H         1 <0>         0.1452
     32 H5          1.2478   -1.7606   -0.0201 H         1 <0>         0.1427
     33 H6         -3.4622   -3.3952    0.0244 H         1 <0>         0.2091
     34 H7         -1.1533   -2.5913    2.2147 H         1 <0>         0.1205
     35 H8          0.4116   -4.0356    3.1416 H         1 <0>         0.4009
@<TRIPOS>BOND
     1    1    6 ar
     2    1    2 ar
     3    1   29 1
     4    2    3 ar
     5    2   30 1
     6    3    4 ar
     7    3   28 1
     8    4    5 ar
     9    4   31 1
    10    5    6 ar
    11    5   32 1
    12    6    7 1
    13    7   11 1
    14    7    8 2
    15    8    9 1
    16    9   10 2
    17   10   11 1
    18   10   33 1
    19   11   12 1
    20   11   13 1
    21   13   14 2
    22   13   34 1
    23   14   15 1
    24   15   16 1
    25   15   35 1
    26   16   21 ar
    27   16   17 ar
    28   17   18 ar
    29   17   27 1
    30   18   19 ar
    31   18   24 1
    32   19   20 ar
    33   20   21 ar
    34   20   23 1
    35   21   22 1
    36   24   25 2
    37   24   26 1
@<TRIPOS>MOLECULE
ZINC19535134
   54    57     0     0     0
SMALL
USER_CHARGES

@<TRIPOS>ATOM
      1 C1          0.3001    1.4508   -0.1562 C.3       1 <0>        -0.1507
      2 C2          0.2622   -0.0786   -0.1359 C.3       1 <0>         0.0537
      3 O1          0.9059   -0.5867   -1.3061 O.3       1 <0>        -0.3171
      4 C3          0.9591   -1.9376   -1.4438 C.ar      1 <0>         0.1323
      5 C4          0.3982   -2.7573   -0.4752 C.ar      1 <0>        -0.2086
      6 C5          0.4531   -4.1303   -0.6177 C.ar      1 <0>        -0.0437
      7 C6          1.0670   -4.6877   -1.7241 C.ar      1 <0>        -0.1475
      8 C7          1.6272   -3.8729   -2.6906 C.ar      1 <0>        -0.0487
      9 C8          1.5694   -2.4993   -2.5558 C.ar      1 <0>        -0.1525
     10 C9          1.1260   -6.1858   -1.8767 C.3       1 <0>         0.4111
     11 H1          2.0337   -6.5688   -1.4104 H         1 <0>         0.1230
     12 N1         -0.0558   -6.7985   -1.2456 N.pl3     1 <0>        -0.8031
     13 C10        -1.2560   -6.7156   -1.9372 C.2       1 <0>         0.6377
     14 N2         -1.2343   -6.7144   -3.2751 N.2       1 <0>        -0.5955
     15 C11        -0.0871   -6.6970   -3.9517 C.2       1 <0>         0.6266
     16 N3          1.1107   -6.5414   -3.3011 N.pl3     1 <0>        -0.5587
     17 C12         2.2817   -6.7093   -3.9751 C.2       1 <0>         0.4886
     18 O2          3.4612   -6.6932   -3.3191 O.3       1 <0>        -0.6568
     19 C13         2.2396   -6.8971   -5.3455 C.2       1 <0>        -0.3937
     20 C14         1.0049   -6.9164   -5.9829 C.2       1 <0>         0.2477
     21 N4         -0.1119   -6.8030   -5.2834 N.2       1 <0>        -0.5739
     22 C15         0.9375   -7.0682   -7.4807 C.3       1 <0>        -0.1013
     23 N5         -2.4036   -6.6385   -1.2840 N.2       1 <0>        -0.5986
     24 C16        -2.4258   -6.7692    0.0761 C.ar      1 <0>         0.1873
     25 C17        -1.8173   -7.8698    0.6859 C.ar      1 <0>        -0.2092
     26 C18        -1.8432   -7.9947    2.0589 C.ar      1 <0>        -0.0921
     27 C19        -2.4703   -7.0338    2.8329 C.ar      1 <0>        -0.1718
     28 C20        -3.0748   -5.9414    2.2363 C.ar      1 <0>        -0.0649
     29 C21        -3.0519   -5.8001    0.8644 C.ar      1 <0>        -0.1180
     30 C22        -3.7059   -4.6068    0.2169 C.3       1 <0>        -0.0936
     31 C23        -3.7554   -4.9009    3.0879 C.3       1 <0>        -0.1109
     32 H2          1.3364    1.7883   -0.1764 H         1 <0>         0.0649
     33 H3         -0.2181    1.8153   -1.0431 H         1 <0>         0.0657
     34 H4         -0.1909    1.8383    0.7365 H         1 <0>         0.0764
     35 H5          0.7804   -0.4432    0.7511 H         1 <0>         0.0603
     36 H6         -0.7741   -0.4161   -0.1157 H         1 <0>         0.0616
     37 H7         -0.0808   -2.3225    0.3896 H         1 <0>         0.1263
     38 H8          0.0166   -4.7689    0.1360 H         1 <0>         0.1245
     39 H9          2.1065   -4.3107   -3.5537 H         1 <0>         0.1269
     40 H10         2.0033   -1.8632   -3.3132 H         1 <0>         0.1299
     41 H11         3.1511   -7.0263   -5.9102 H         1 <0>         0.1343
     42 H12         0.8828   -8.1263   -7.7366 H         1 <0>         0.0794
     43 H13         0.0519   -6.5569   -7.8583 H         1 <0>         0.0768
     44 H14         1.8289   -6.6312   -7.9307 H         1 <0>         0.0742
     45 H15        -1.3282   -8.6208    0.0831 H         1 <0>         0.1092
     46 H16        -1.3735   -8.8447    2.5315 H         1 <0>         0.1101
     47 H17        -2.4881   -7.1372    3.9078 H         1 <0>         0.1095
     48 H18        -4.7480   -4.8385   -0.0031 H         1 <0>         0.0596
     49 H19        -3.6585   -3.7543    0.8945 H         1 <0>         0.0504
     50 H20        -3.1843   -4.3644   -0.7089 H         1 <0>         0.0681
     51 H21        -3.0376   -4.1264    3.3582 H         1 <0>         0.0638
     52 H22        -4.5778   -4.4548    2.5286 H         1 <0>         0.0654
     53 H23        -4.1431   -5.3688    3.9928 H         1 <0>         0.0602
     54 H24         0.0025   -7.2409   -0.3843 H         1 <0>         0.4055
@<TRIPOS>BOND
     1    1    2 1
     2    1   32 1
     3    1   33 1
     4    1   34 1
     5    2    3 1
     6    2   35 1
     7    2   36 1
     8    3    4 1
     9    4    9 ar
    10    4    5 ar
    11    5    6 ar
    12    5   37 1
    13    6    7 ar
    14    6   38 1
    15    7    8 ar
    16    7   10 1
    17    8    9 ar
    18    8   39 1
    19    9   40 1
    20   10   11 1
    21   10   16 1
    22   10   12 1
    23   12   13 1
    24   12   54 1
    25   13   14 1
    26   13   23 2
    27   14   15 2
    28   15   21 1
    29   15   16 1
    30   16   17 1
    31   17   18 1
    32   17   19 2
    33   19   20 1
    34   19   41 1
    35   20   21 2
    36   20   22 1
    37   22   42 1
    38   22   43 1
    39   22   44 1
    40   23   24 1
    41   24   29 ar
    42   24   25 ar
    43   25   26 ar
    44   25   45 1
    45   26   27 ar
    46   26   46 1
    47   27   28 ar
    48   27   47 1
    49   28   29 ar
    50   28   31 1
    51   29   30 1
    52   30   48 1
    53   30   49 1
    54   30   50 1
    55   31   51 1
    56   31   52 1
    57   31   53 1
@<TRIPOS>MOLECULE
ZINC16931236
   53    55     0     0     0
SMALL
USER_CHARGES

@<TRIPOS>ATOM
      1 C1         -0.1890    0.3369   -0.8502 C.3       1 <0>        -0.1579
      2 C2          0.1592   -1.0324   -1.4373 C.3       1 <0>        -0.1344
      3 C3          1.1441   -0.8555   -2.5948 C.3       1 <0>         0.0287
      4 H1          0.7257   -0.1631   -3.3252 H         1 <0>         0.1091
      5 C4          1.3922   -2.1891   -3.2514 C.2       1 <0>         0.3501
      6 O1          2.3913   -2.8147   -2.9892 O.2       1 <0>        -0.4264
      7 C5          0.3935   -2.7419   -4.2353 C.3       1 <0>        -0.1985
      8 O2          2.3771   -0.3337   -2.0954 O.3       1 <0>        -0.2842
      9 C6          2.5927    0.9968   -2.2550 C.ar      1 <0>         0.1602
     10 C7          1.5934    1.8072   -2.7688 C.ar      1 <0>        -0.2187
     11 C8          1.8137    3.1618   -2.9304 C.ar      1 <0>        -0.0550
     12 C9          3.0324    3.7214   -2.5819 C.ar      1 <0>        -0.1482
     13 C10         4.0388    2.9326   -2.0694 C.ar      1 <0>        -0.0540
     14 C11         3.8281    1.5597   -1.8946 C.ar      1 <0>        -0.1155
     15 C12         4.8932    0.7131   -1.3439 C.2       1 <0>         0.0699
     16 C13         6.1778    1.1528   -1.3429 C.2       1 <0>        -0.2236
     17 C14         7.3747    0.5456   -0.7307 C.2       1 <0>         0.5599
     18 O3          7.3121   -0.5018   -0.1138 O.2       1 <0>        -0.4944
     19 N1          8.5188    1.1908   -0.8832 N.am      1 <0>        -0.5422
     20 C15         8.5701    2.3735   -1.5844 C.2       1 <0>         0.3676
     21 N2          9.6159    3.1365   -1.8279 N.2       1 <0>        -0.4417
     22 C16         9.4694    4.2830   -2.5480 C.ar      1 <0>         0.0880
     23 C17         8.6975    4.2804   -3.7194 C.ar      1 <0>        -0.1660
     24 C18         8.5465    5.4224   -4.4445 C.ar      1 <0>        -0.0539
     25 C19         9.1624    6.6108   -4.0248 C.ar      1 <0>        -0.1509
     26 C20         9.9380    6.6219   -2.8507 C.ar      1 <0>         0.1490
     27 C21        10.0838    5.4621   -2.1157 C.ar      1 <0>        -0.1360
     28 O4         10.5361    7.7679   -2.4403 O.3       1 <0>        -0.4699
     29 C22         8.9988    7.8389   -4.8083 C.2       1 <0>         0.5178
     30 O5          8.3242    7.8281   -5.8299 O.co2     1 <0>        -0.6893
     31 O6          9.5369    8.8756   -4.4410 O.co2     1 <0>        -0.6691
     32 S1          6.8753    2.6189   -2.0895 S.3       1 <0>        -0.0180
     33 C23         9.7445    0.6408   -0.2989 C.3       1 <0>         0.0718
     34 H2          0.7187    0.8170   -0.4847 H         1 <0>         0.0632
     35 H3         -0.6432    0.9584   -1.6221 H         1 <0>         0.0600
     36 H4         -0.8907    0.2110   -0.0257 H         1 <0>         0.0643
     37 H5          0.6133   -1.6538   -0.6655 H         1 <0>         0.0813
     38 H6         -0.7486   -1.5124   -1.8028 H         1 <0>         0.0864
     39 H7         -0.4359   -2.0429   -4.3428 H         1 <0>         0.0840
     40 H8          0.8764   -2.8842   -5.2020 H         1 <0>         0.0994
     41 H9          0.0175   -3.6986   -3.8726 H         1 <0>         0.0982
     42 H10         0.6406    1.3795   -3.0438 H         1 <0>         0.1376
     43 H11         1.0308    3.7884   -3.3315 H         1 <0>         0.1321
     44 H12         3.1942    4.7811   -2.7131 H         1 <0>         0.1361
     45 H13         4.9871    3.3732   -1.7992 H         1 <0>         0.1456
     46 H14         4.6550   -0.2597   -0.9395 H         1 <0>         0.1589
     47 H15         8.2213    3.3682   -4.0475 H         1 <0>         0.1241
     48 H16         7.9512    5.4135   -5.3456 H         1 <0>         0.1359
     49 H17        10.6747    5.4647   -1.2116 H         1 <0>         0.1294
     50 H18         9.9918    8.3058   -1.8492 H         1 <0>         0.3860
     51 H19         9.5148   -0.2925    0.2153 H         1 <0>         0.0955
     52 H20        10.4704    0.4510   -1.0895 H         1 <0>         0.0785
     53 H21        10.1601    1.3547    0.4123 H         1 <0>         0.0790
@<TRIPOS>BOND
     1    1    2 1
     2    1   34 1
     3    1   35 1
     4    1   36 1
     5    2    3 1
     6    2   37 1
     7    2   38 1
     8    3    4 1
     9    3    5 1
    10    3    8 1
    11    5    6 2
    12    5    7 1
    13    7   39 1
    14    7   40 1
    15    7   41 1
    16    8    9 1
    17    9   14 ar
    18    9   10 ar
    19   10   11 ar
    20   10   42 1
    21   11   12 ar
    22   11   43 1
    23   12   13 ar
    24   12   44 1
    25   13   14 ar
    26   13   45 1
    27   14   15 1
    28   15   16 2
    29   15   46 1
    30   16   32 1
    31   16   17 1
    32   17   18 2
    33   17   19 am
    34   19   20 1
    35   19   33 1
    36   20   21 2
    37   20   32 1
    38   21   22 1
    39   22   27 ar
    40   22   23 ar
    41   23   24 ar
    42   23   47 1
    43   24   25 ar
    44   24   48 1
    45   25   26 ar
    46   25   29 1
    47   26   27 ar
    48   26   28 1
    49   27   49 1
    50   28   50 1
    51   29   30 2
    52   29   31 1
    53   33   51 1
    54   33   52 1
    55   33   53 1
@<TRIPOS>MOLECULE
ZINC16935793
   41    43     0     0     0
SMALL
USER_CHARGES
4-[(Z)-[(2Z)-3-ethyl-2-(3-hydroxyphenyl)imino-4-oxo-thiazolidin-5-ylidene]methyl]benzoic acid
@<TRIPOS>ATOM
      1 C1         -0.2216    0.9808    0.4907 C.3       1 <0>        -0.1647
      2 C2         -1.0375    1.5617    1.6473 C.3       1 <0>         0.0988
      3 N1         -0.9935    3.0249    1.5894 N.am      1 <0>        -0.5416
      4 C3         -1.9127    3.6805    0.9009 C.2       1 <0>         0.5622
      5 O1         -2.8013    3.0976    0.3089 O.2       1 <0>        -0.4900
      6 C4         -1.8091    5.1565    0.8843 C.2       1 <0>        -0.2440
      7 C5         -2.6032    6.0684    0.2690 C.2       1 <0>         0.0913
      8 C6         -2.4096    7.5019    0.5242 C.ar      1 <0>        -0.1165
      9 C7         -1.6842    7.9224    1.6464 C.ar      1 <0>        -0.1007
     10 C8         -1.5004    9.2553    1.8796 C.ar      1 <0>        -0.0809
     11 C9         -2.0455   10.2005    1.0050 C.ar      1 <0>        -0.0766
     12 C10        -2.7743    9.7821   -0.1127 C.ar      1 <0>        -0.0954
     13 C11        -2.9551    8.4497   -0.3511 C.ar      1 <0>        -0.0896
     14 C12        -1.8517   11.6408    1.2619 C.2       1 <0>         0.4837
     15 O2         -2.3254   12.4624    0.5026 O.co2     1 <0>        -0.6244
     16 S1         -0.3570    5.4147    1.8933 S.3       1 <0>        -0.0071
     17 C13         0.0019    3.7041    2.2576 C.2       1 <0>         0.3869
     18 N2          0.9794    3.2123    2.9843 N.2       1 <0>        -0.4767
     19 C14         1.8819    4.0533    3.5763 C.ar      1 <0>         0.1208
     20 C15         2.4311    5.1148    2.8522 C.ar      1 <0>        -0.1569
     21 C16         3.3402    5.9607    3.4527 C.ar      1 <0>        -0.0781
     22 C17         3.7108    5.7620    4.7703 C.ar      1 <0>        -0.1486
     23 C18         3.1706    4.7100    5.4980 C.ar      1 <0>         0.1187
     24 C19         2.2532    3.8576    4.9075 C.ar      1 <0>        -0.1299
     25 O3          3.5384    4.5202    6.7925 O.3       1 <0>        -0.4980
     26 H1         -0.2544   -0.1079    0.5338 H         1 <0>         0.0751
     27 H2          0.8122    1.3166    0.5707 H         1 <0>         0.0618
     28 H3         -0.6415    1.3197   -0.4563 H         1 <0>         0.0600
     29 H4         -2.0714    1.2258    1.5674 H         1 <0>         0.0945
     30 H5         -0.6176    1.2228    2.5944 H         1 <0>         0.0979
     31 H6         -3.3776    5.7403   -0.4085 H         1 <0>         0.1565
     32 H7         -1.2672    7.1927    2.3246 H         1 <0>         0.1293
     33 H8         -0.9379    9.5797    2.7427 H         1 <0>         0.1386
     34 H9         -3.1948   10.5131   -0.7875 H         1 <0>         0.1355
     35 H10        -3.5186    8.1268   -1.2140 H         1 <0>         0.1275
     36 H11         2.1436    5.2730    1.8232 H         1 <0>         0.1330
     37 H12         3.7638    6.7810    2.8923 H         1 <0>         0.1347
     38 H13         4.4233    6.4274    5.2349 H         1 <0>         0.1322
     39 H14         1.8291    3.0417    5.4738 H         1 <0>         0.1340
     40 H15         2.9835    4.9879    7.4316 H         1 <0>         0.3926
     41 O4         -1.1495   12.0446    2.3387 O.co2     1 <0>        -0.7460
@<TRIPOS>BOND
     1    1    2 1
     2    1   26 1
     3    1   27 1
     4    1   28 1
     5    2    3 1
     6    2   29 1
     7    2   30 1
     8    3   17 1
     9    3    4 am
    10    4    5 2
    11    4    6 1
    12    6    7 2
    13    6   16 1
    14    7    8 1
    15    7   31 1
    16    8   13 ar
    17    8    9 ar
    18    9   10 ar
    19    9   32 1
    20   10   11 ar
    21   10   33 1
    22   11   12 ar
    23   11   14 1
    24   12   13 ar
    25   12   34 1
    26   13   35 1
    27   14   15 2
    28   14   41 1
    29   16   17 1
    30   17   18 2
    31   18   19 1
    32   19   24 ar
    33   19   20 ar
    34   20   21 ar
    35   20   36 1
    36   21   22 ar
    37   21   37 1
    38   22   23 ar
    39   22   38 1
    40   23   24 ar
    41   23   25 1
    42   24   39 1
    43   25   40 1
@<TRIPOS>MOLECULE
ZINC08743468
   51    54     0     0     0
SMALL
USER_CHARGES

@<TRIPOS>ATOM
      1 C1         -0.0252    1.6059    0.2316 C.3       1 <0>        -0.1509
      2 C2         -0.0184    0.0785    0.1433 C.3       1 <0>        -0.0830
      3 H1          0.4640   -0.2327   -0.7833 H         1 <0>         0.0824
      4 C3         -1.4559   -0.4451    0.1760 C.3       1 <0>        -0.0748
      5 C4         -2.0456   -0.2516    1.5423 C.2       1 <0>        -0.1259
      6 C5         -1.3472   -0.0215    2.6077 C.2       1 <0>        -0.1461
      7 C6          0.1488    0.0949    2.6235 C.3       1 <0>        -0.0493
      8 H2          0.4287    1.1460    2.6927 H         1 <0>         0.0839
      9 C7          0.7421   -0.5038    1.3414 C.3       1 <0>        -0.0298
     10 H3          0.6261   -1.5875    1.3574 H         1 <0>         0.0944
     11 C8          2.2027   -0.1480    1.2358 C.2       1 <0>         0.1318
     12 N1          3.0840   -1.0741    1.1701 N.2       1 <0>        -0.2317
     13 N2          4.4334   -0.7452    0.9860 N.am      1 <0>        -0.4144
     14 C9          5.1014   -0.0835    1.9551 C.2       1 <0>         0.5541
     15 O1          4.5426    0.2323    2.9927 O.2       1 <0>        -0.5842
     16 C10         6.4594    0.2346    1.7423 C.2       1 <0>        -0.1581
     17 C11         7.0505   -0.1492    0.5400 C.2       1 <0>         0.2154
     18 C12         8.4462    0.3071    0.5964 C.ar      1 <0>        -0.0897
     19 C13         9.5211    0.2216   -0.2904 C.ar      1 <0>        -0.0587
     20 C14        10.7420    0.7629    0.0594 C.ar      1 <0>         0.0575
     21 C15        10.9024    1.3914    1.2913 C.ar      1 <0>        -0.1506
     22 C16         9.8497    1.4816    2.1734 C.ar      1 <0>        -0.1266
     23 C17         8.6099    0.9422    1.8390 C.ar      1 <0>         0.1400
     24 N3          7.4061    0.8887    2.5130 N.pl3     1 <0>        -0.5744
     25 H4          7.2467    1.2555    3.3967 H         1 <0>         0.4108
     26 O2         11.7913    0.6815   -0.8018 O.3       1 <0>        -0.3207
     27 C18        13.0259    1.2623   -0.3770 C.3       1 <0>         0.0316
     28 N4          6.3256   -0.8057   -0.3817 N.2       1 <0>        -0.5862
     29 C19         5.0664   -1.1001   -0.1686 C.2       1 <0>         0.6140
     30 O3          4.3761   -1.7665   -1.1197 O.3       1 <0>        -0.6530
     31 C20         0.7033   -0.6584    3.8343 C.3       1 <0>        -0.1457
     32 C21        -3.5439   -0.3305    1.6830 C.3       1 <0>        -0.1189
     33 H5          1.0001    1.9754    0.2157 H         1 <0>         0.0541
     34 H6         -0.5726    2.0165   -0.6169 H         1 <0>         0.0548
     35 H7         -0.5081    1.9141    1.1590 H         1 <0>         0.0623
     36 H8         -2.0546    0.0971   -0.5560 H         1 <0>         0.0737
     37 H9         -1.4596   -1.5065   -0.0721 H         1 <0>         0.0759
     38 H10        -1.8741    0.0942    3.5433 H         1 <0>         0.1038
     39 H11         2.5059    0.8884    1.2156 H         1 <0>         0.1010
     40 H12         9.3981   -0.2664   -1.2460 H         1 <0>         0.1350
     41 H13        11.8612    1.8115    1.5571 H         1 <0>         0.1273
     42 H14         9.9854    1.9711    3.1265 H         1 <0>         0.1223
     43 H15        12.8817    2.3266   -0.1908 H         1 <0>         0.0495
     44 H16        13.3603    0.7753    0.5390 H         1 <0>         0.0496
     45 H17        13.7773    1.1281   -1.1550 H         1 <0>         0.0928
     46 H18         0.4203   -1.7090    3.7694 H         1 <0>         0.0552
     47 H19         1.7901   -0.5751    3.8475 H         1 <0>         0.0653
     48 H20         0.2947   -0.2278    4.7484 H         1 <0>         0.0527
     49 H21        -3.8357   -1.3602    1.8900 H         1 <0>         0.0630
     50 H22        -3.8661    0.3104    2.5036 H         1 <0>         0.0589
     51 H23        -4.0137    0.0011    0.7570 H         1 <0>         0.0598
@<TRIPOS>BOND
     1    1    2 1
     2    1   33 1
     3    1   34 1
     4    1   35 1
     5    2    3 1
     6    2    9 1
     7    2    4 1
     8    4    5 1
     9    4   36 1
    10    4   37 1
    11    5    6 2
    12    5   32 1
    13    6    7 1
    14    6   38 1
    15    7    8 1
    16    7    9 1
    17    7   31 1
    18    9   10 1
    19    9   11 1
    20   11   12 2
    21   11   39 1
    22   12   13 1
    23   13   29 1
    24   13   14 am
    25   14   15 2
    26   14   16 1
    27   16   24 1
    28   16   17 2
    29   17   18 1
    30   17   28 1
    31   18   23 ar
    32   18   19 ar
    33   19   20 ar
    34   19   40 1
    35   20   21 ar
    36   20   26 1
    37   21   22 ar
    38   21   41 1
    39   22   23 ar
    40   22   42 1
    41   23   24 1
    42   24   25 1
    43   26   27 1
    44   27   43 1
    45   27   44 1
    46   27   45 1
    47   28   29 2
    48   29   30 1
    49   31   46 1
    50   31   47 1
    51   31   48 1
    52   32   49 1
    53   32   50 1
    54   32   51 1
@<TRIPOS>MOLECULE
ZINC40086323
   47    50     0     0     0
SMALL
USER_CHARGES

@<TRIPOS>ATOM
      1 C1         -0.2615    1.8108   -0.3807 C.3       1 <0>        -0.1400
      2 C2         -0.1153    0.2988   -0.1983 C.3       1 <0>         0.0278
      3 C3          0.6644    0.0132    1.0868 C.3       1 <0>        -0.1404
      4 C4         -1.5023   -0.3403   -0.1060 C.3       1 <0>        -0.1470
      5 C5          0.6271   -0.2797   -1.3753 C.2       1 <0>         0.2519
      6 N1          1.8341    0.0486   -1.7259 N.2       1 <0>        -0.4717
      7 C6          2.1817   -0.6702   -2.8278 C.ar      1 <0>         0.0431
      8 C7          3.3300   -0.7291   -3.6184 C.ar      1 <0>        -0.0709
      9 C8          3.3721   -1.5878   -4.7016 C.ar      1 <0>         0.1599
     10 C9          2.2748   -2.3908   -5.0040 C.ar      1 <0>        -0.1145
     11 C10         1.1368   -2.3381   -4.2284 C.ar      1 <0>        -0.0735
     12 C11         1.0803   -1.4820   -3.1386 C.ar      1 <0>        -0.0159
     13 O1          0.1378   -1.2119   -2.2077 O.3       1 <0>        -0.2125
     14 N2          4.5227   -1.6499   -5.4983 N.am      1 <0>        -0.6720
     15 C12         5.7376   -1.4719   -4.9425 C.2       1 <0>         0.5324
     16 O2          5.8429   -1.3535   -3.7400 O.2       1 <0>        -0.5289
     17 C13         6.9651   -1.4201   -5.8151 C.3       1 <0>        -0.0968
     18 H1          6.8871   -0.6066   -6.5364 H         1 <0>         0.1179
     19 C14         8.2517   -1.2602   -4.9440 C.3       1 <0>        -0.0489
     20 H2          8.2016   -0.5271   -4.1389 H         1 <0>         0.0988
     21 C15         8.4966   -2.7552   -4.5223 C.3       1 <0>        -0.1222
     22 C16         8.5653   -3.2594   -6.0103 C.3       1 <0>        -0.0526
     23 H3          8.8093   -4.3112   -6.1593 H         1 <0>         0.0971
     24 C17         7.1751   -2.7721   -6.5401 C.3       1 <0>        -0.1442
     25 H4          6.3911   -3.4787   -6.2677 H         1 <0>         0.0689
     26 C18         7.2146   -2.5720   -8.0332 C.2       1 <0>         0.5048
     27 O3          7.8769   -3.3207   -8.7313 O.co2     1 <0>        -0.6878
     28 O4          6.5842   -1.6615   -8.5432 O.co2     1 <0>        -0.6968
     29 C19         9.5591   -2.2425   -6.5849 C.2       1 <0>        -0.1188
     30 C20         9.3753   -1.0680   -5.9700 C.2       1 <0>        -0.2005
     31 H5          0.7267    2.2661   -0.4464 H         1 <0>         0.0719
     32 H6         -0.8170    2.0143   -1.2962 H         1 <0>         0.0599
     33 H7         -0.7984    2.2292    0.4706 H         1 <0>         0.0734
     34 H8          0.1275    0.4316    1.9381 H         1 <0>         0.0733
     35 H9          0.7686   -1.0640    1.2168 H         1 <0>         0.0599
     36 H10         1.6526    0.4685    1.0211 H         1 <0>         0.0721
     37 H11        -2.0578   -0.1368   -1.0215 H         1 <0>         0.0641
     38 H12        -1.3981   -1.4175    0.0240 H         1 <0>         0.0640
     39 H13        -2.0392    0.0781    0.7453 H         1 <0>         0.0725
     40 H14         4.1816   -0.1070   -3.3857 H         1 <0>         0.1479
     41 H15         2.3160   -3.0587   -5.8518 H         1 <0>         0.1461
     42 H16         0.2895   -2.9630   -4.4691 H         1 <0>         0.1382
     43 H17         4.4451   -1.8210   -6.4499 H         1 <0>         0.4243
     44 H18         9.4392   -2.8903   -3.9918 H         1 <0>         0.0692
     45 H19         7.6535   -3.1786   -3.9765 H         1 <0>         0.0699
     46 H20        10.2841   -2.4372   -7.3613 H         1 <0>         0.1218
     47 H21         9.9191   -0.1518   -6.1469 H         1 <0>         0.1247
@<TRIPOS>BOND
     1    1    2 1
     2    1   31 1
     3    1   32 1
     4    1   33 1
     5    2    3 1
     6    2    4 1
     7    2    5 1
     8    3   34 1
     9    3   35 1
    10    3   36 1
    11    4   37 1
    12    4   38 1
    13    4   39 1
    14    5   13 1
    15    5    6 2
    16    6    7 1
    17    7   12 ar
    18    7    8 ar
    19    8    9 ar
    20    8   40 1
    21    9   10 ar
    22    9   14 1
    23   10   11 ar
    24   10   41 1
    25   11   12 ar
    26   11   42 1
    27   12   13 1
    28   14   15 am
    29   14   43 1
    30   15   16 2
    31   15   17 1
    32   17   18 1
    33   17   24 1
    34   17   19 1
    35   19   20 1
    36   19   30 1
    37   19   21 1
    38   21   22 1
    39   21   44 1
    40   21   45 1
    41   22   23 1
    42   22   24 1
    43   22   29 1
    44   24   25 1
    45   24   26 1
    46   26   27 2
    47   26   28 1
    48   29   30 2
    49   29   46 1
    50   30   47 1
@<TRIPOS>MOLECULE
ZINC15668927
   43    45     0     0     0
SMALL
USER_CHARGES

@<TRIPOS>ATOM
      1 C1         -0.0187    1.5258    0.0104 C.3       1 <0>        -0.1506
      2 C2          0.0021   -0.0041    0.0020 C.3       1 <0>        -0.1235
      3 C3          0.7421   -0.5109    1.2415 C.3       1 <0>        -0.1118
      4 C4          0.7628   -2.0407    1.2331 C.3       1 <0>        -0.0229
      5 C5          1.4917   -2.5400    2.4540 C.2       1 <0>        -0.3486
      6 C6          2.8807   -2.6521    2.4498 C.2       1 <0>         0.2391
      7 N1          3.5167   -3.0883    3.5167 N.2       1 <0>        -0.5611
      8 C7          2.8497   -3.4325    4.6242 C.2       1 <0>         0.4951
      9 N2          3.2512   -3.8907    5.8054 N.2       1 <0>        -0.5979
     10 C8          2.1956   -4.0878    6.5928 C.2       1 <0>         0.4905
     11 N3          1.0975   -3.7639    5.9427 N.2       1 <0>        -0.3899
     12 N4          1.4874   -3.3364    4.6669 N.pl3     1 <0>        -0.3541
     13 C9          0.7981   -2.8836    3.5830 C.2       1 <0>         0.4938
     14 O1         -0.5500   -2.7804    3.6197 O.3       1 <0>        -0.6551
     15 N5          2.2453   -4.5634    7.9008 N.pl3     1 <0>        -0.6989
     16 C10         3.5357   -4.8894    8.5131 C.3       1 <0>         0.1875
     17 C11         3.3143   -5.3788    9.9211 C.ar      1 <0>        -0.1322
     18 C12         3.2986   -4.4786   10.9730 C.ar      1 <0>         0.1342
     19 C13         3.0951   -4.9295   12.2660 C.ar      1 <0>        -0.1552
     20 C14         2.9077   -6.2777   12.5064 C.ar      1 <0>        -0.0735
     21 C15         2.9233   -7.1763   11.4565 C.ar      1 <0>        -0.1262
     22 C16         3.1209   -6.7267   10.1627 C.ar      1 <0>         0.0079
     23 Cl1         3.1333   -7.8554    8.8438 Cl        1 <0>        -0.0417
     24 F1          3.4823   -3.1609   10.7377 F         1 <0>        -0.1234
     25 C17         3.6592   -2.2723    1.2166 C.3       1 <0>        -0.0969
     26 H1          1.0039    1.9031    0.0027 H         1 <0>         0.0508
     27 H2         -0.5459    1.8868   -0.8726 H         1 <0>         0.0470
     28 H3         -0.5289    1.8773    0.9072 H         1 <0>         0.0513
     29 H4         -1.0205   -0.3814    0.0098 H         1 <0>         0.0588
     30 H5          0.5123   -0.3556   -0.8948 H         1 <0>         0.0571
     31 H6          1.7647   -0.1336    1.2338 H         1 <0>         0.0543
     32 H7          0.2319   -0.1594    2.1383 H         1 <0>         0.0579
     33 H8         -0.2598   -2.4180    1.2409 H         1 <0>         0.0663
     34 H9          1.2730   -2.3923    0.3363 H         1 <0>         0.0556
     35 H10         1.4256   -4.6787    8.4065 H         1 <0>         0.4081
     36 H11         4.0277   -5.6685    7.9308 H         1 <0>         0.0814
     37 H12         4.1640   -3.9989    8.5326 H         1 <0>         0.0756
     38 H13         3.0832   -4.2279   13.0870 H         1 <0>         0.1428
     39 H14         2.7494   -6.6292   13.5152 H         1 <0>         0.1428
     40 H15         2.7772   -8.2296   11.6454 H         1 <0>         0.1413
     41 H16         3.9258   -1.2166    1.2660 H         1 <0>         0.0757
     42 H17         4.5664   -2.8739    1.1600 H         1 <0>         0.0716
     43 H18         3.0485   -2.4518    0.3318 H         1 <0>         0.0770
@<TRIPOS>BOND
     1    1    2 1
     2    1   26 1
     3    1   27 1
     4    1   28 1
     5    2    3 1
     6    2   29 1
     7    2   30 1
     8    3    4 1
     9    3   31 1
    10    3   32 1
    11    4    5 1
    12    4   33 1
    13    4   34 1
    14    5   13 2
    15    5    6 1
    16    6    7 2
    17    6   25 1
    18    7    8 1
    19    8   12 1
    20    8    9 2
    21    9   10 1
    22   10   11 2
    23   10   15 1
    24   11   12 1
    25   12   13 1
    26   13   14 1
    27   15   16 1
    28   15   35 1
    29   16   17 1
    30   16   36 1
    31   16   37 1
    32   17   22 ar
    33   17   18 ar
    34   18   19 ar
    35   18   24 1
    36   19   20 ar
    37   19   38 1
    38   20   21 ar
    39   20   39 1
    40   21   22 ar
    41   21   40 1
    42   22   23 1
    43   25   41 1
    44   25   42 1
    45   25   43 1
@<TRIPOS>MOLECULE
ZINC67029226
   42    44     0     0     0
SMALL
USER_CHARGES

@<TRIPOS>ATOM
      1 C1          0.2216   -2.2987    2.5062 C.3       1 <0>        -0.1484
      2 C2         -0.4353   -2.7604    1.2037 C.3       1 <0>         0.0655
      3 O1          0.5229   -2.7143    0.1446 O.3       1 <0>        -0.3373
      4 C3          0.1022   -3.0921   -1.0770 C.2       1 <0>         0.5565
      5 O2         -1.0456   -3.4507   -1.2394 O.2       1 <0>        -0.4989
      6 C4          1.0441   -3.0700   -2.2277 C.2       1 <0>         0.3343
      7 C5          1.7274   -4.2541   -2.5977 C.2       1 <0>        -0.4013
      8 C6          2.6734   -4.1607   -3.7808 C.3       1 <0>         0.3014
      9 H1          2.3474   -4.8791   -4.5330 H         1 <0>         0.0819
     10 N1          2.7836   -2.8402   -4.4258 N.pl3     1 <0>        -0.6813
     11 C7          2.0529   -1.8217   -3.9342 C.2       1 <0>         0.5681
     12 S1          2.1820   -0.2883   -4.6845 S.2       1 <0>        -0.6663
     13 N2          1.2306   -1.9525   -2.8953 N.2       1 <0>        -0.5851
     14 C8          4.0480   -4.5663   -3.3149 C.2       1 <0>        -0.1728
     15 C9          4.9249   -3.9023   -2.5158 C.2       1 <0>         0.0486
     16 N3          6.0861   -4.4421   -2.2290 N.2       1 <0>        -0.4867
     17 C10         6.4285   -5.6312   -2.7042 C.2       1 <0>         0.1330
     18 S2          4.9747   -6.0580   -3.6535 S.3       1 <0>         0.0169
     19 C11         7.6748   -6.4003   -2.4994 C.ar      1 <0>        -0.0070
     20 C12         7.8360   -7.6474   -3.1044 C.ar      1 <0>        -0.0948
     21 C13         9.0012   -8.3600   -2.9093 C.ar      1 <0>        -0.1188
     22 C14        10.0085   -7.8406   -2.1158 C.ar      1 <0>        -0.1065
     23 C15         9.8549   -6.6047   -1.5131 C.ar      1 <0>        -0.1207
     24 C16         8.6970   -5.8796   -1.7049 C.ar      1 <0>        -0.0733
     25 C17         1.5456   -5.4147   -1.9271 C.2       1 <0>         0.3523
     26 O3          0.8127   -5.4319   -0.7970 O.3       1 <0>        -0.5949
     27 C18         2.1629   -6.6884   -2.4444 C.3       1 <0>        -0.1610
     28 H2          1.0581   -2.9559    2.7441 H         1 <0>         0.0648
     29 H3          0.5840   -1.2775    2.3882 H         1 <0>         0.0645
     30 H4         -0.5093   -2.3339    3.3140 H         1 <0>         0.0747
     31 H5         -0.7976   -3.7816    1.3217 H         1 <0>         0.0686
     32 H6         -1.2717   -2.1032    0.9658 H         1 <0>         0.0623
     33 H7          3.3697   -2.7077   -5.1872 H         1 <0>         0.4217
     34 H8          4.6664   -2.9320   -2.1181 H         1 <0>         0.1645
     35 H9          7.0502   -8.0541   -3.7238 H         1 <0>         0.1268
     36 H10         9.1271   -9.3254   -3.3767 H         1 <0>         0.1293
     37 H11        10.9186   -8.4025   -1.9659 H         1 <0>         0.1259
     38 H12        10.6450   -6.2048   -0.8949 H         1 <0>         0.1292
     39 H13         8.5802   -4.9128   -1.2378 H         1 <0>         0.1358
     40 H14         2.6227   -6.5014   -3.4148 H         1 <0>         0.0633
     41 H15         2.9221   -7.0350   -1.7433 H         1 <0>         0.0818
     42 H16         1.3903   -7.4501   -2.5492 H         1 <0>         0.0832
@<TRIPOS>BOND
     1    1    2 1
     2    1   28 1
     3    1   29 1
     4    1   30 1
     5    2    3 1
     6    2   31 1
     7    2   32 1
     8    3    4 1
     9    4    5 2
    10    4    6 1
    11    6   13 2
    12    6    7 1
    13    7    8 1
    14    7   25 2
    15    8    9 1
    16    8   10 1
    17    8   14 1
    18   10   11 1
    19   10   33 1
    20   11   12 2
    21   11   13 1
    22   14   18 1
    23   14   15 2
    24   15   16 1
    25   15   34 1
    26   16   17 2
    27   17   18 1
    28   17   19 1
    29   19   24 ar
    30   19   20 ar
    31   20   21 ar
    32   20   35 1
    33   21   22 ar
    34   21   36 1
    35   22   23 ar
    36   22   37 1
    37   23   24 ar
    38   23   38 1
    39   24   39 1
    40   25   26 1
    41   25   27 1
    42   27   40 1
    43   27   41 1
    44   27   42 1
@<TRIPOS>MOLECULE
ZINC19631448
   52    55     0     0     0
SMALL
USER_CHARGES
(4S,7R)-4-(3-ethoxy-4-hydroxy-5-nitro-phenyl)-7-(4-fluorophenyl)-1,3,4,6,7,8-hexahydroquinoline-2,5-dione
@<TRIPOS>ATOM
      1 C1         -4.7298    4.8257    6.0538 C.3       1 <0>        -0.1498
      2 C2         -3.8131    4.3806    4.9125 C.3       1 <0>         0.0511
      3 O1         -2.7641    3.5631    5.4353 O.3       1 <0>        -0.2956
      4 C3         -1.8554    3.0811    4.5458 C.ar      1 <0>         0.0176
      5 C4         -1.9710    3.3883    3.1996 C.ar      1 <0>        -0.1297
      6 C5         -1.0467    2.8971    2.2966 C.ar      1 <0>        -0.1775
      7 C6         -0.0089    2.0945    2.7327 C.ar      1 <0>        -0.0406
      8 C7          0.1156    1.7888    4.0751 C.ar      1 <0>        -0.1881
      9 C8         -0.8075    2.2779    4.9855 C.ar      1 <0>         0.3075
     10 O2         -0.6895    1.9739    6.3057 O.3       1 <0>        -0.6208
     11 N1          1.2317    0.9346    4.5393 N.pl3     1 <0>         0.0747
     12 O3          2.0431    0.5047    3.7391 O.2       1 <0>        -0.2683
     13 O4          1.3387    0.6615    5.7215 O.3       1 <0>        -0.1707
     14 C9         -1.1740    3.2322    0.8329 C.3       1 <0>         0.0320
     15 H1         -2.0520    3.8803    0.6946 H         1 <0>         0.1021
     16 C10        -1.3304    1.9423    0.0189 C.3       1 <0>        -0.1365
     17 C11        -0.0144    1.2083    0.0087 C.2       1 <0>         0.5309
     18 O5          0.0021   -0.0041    0.0020 O.2       1 <0>        -0.5089
     19 N2          1.1415    1.8948    0.0013 N.am      1 <0>        -0.6708
     20 C12         1.1519    3.2664   -0.0185 C.2       1 <0>         0.2182
     21 C13         0.0652    3.9640    0.3738 C.2       1 <0>        -0.2703
     22 C14         0.0560    5.3688    0.3670 C.2       1 <0>         0.4087
     23 O6         -0.9455    5.9619    0.7150 O.2       1 <0>        -0.4675
     24 C15         1.2676    6.1504   -0.0653 C.3       1 <0>        -0.1590
     25 C16         2.5235    5.3223    0.2258 C.3       1 <0>        -0.0396
     26 H2          2.6421    5.1710    1.3089 H         1 <0>         0.0984
     27 C17         2.3971    3.9754   -0.4897 C.3       1 <0>        -0.0900
     28 C18         3.7399    6.0527   -0.2821 C.ar      1 <0>        -0.0866
     29 C19         3.8437    6.3726   -1.6230 C.ar      1 <0>        -0.0852
     30 C20         4.9562    7.0473   -2.0889 C.ar      1 <0>        -0.1518
     31 C21         5.9724    7.3926   -1.2141 C.ar      1 <0>         0.0944
     32 C22         5.8699    7.0667    0.1277 C.ar      1 <0>        -0.1499
     33 C23         4.7538    6.3973    0.5923 C.ar      1 <0>        -0.0801
     34 F1          7.0633    8.0466   -1.6696 F         1 <0>        -0.1416
     35 H3         -5.5373    5.4550    5.6513 H         1 <0>         0.0710
     36 H4         -4.1477    5.4015    6.7884 H         1 <0>         0.0641
     37 H5         -5.1635    3.9406    6.5422 H         1 <0>         0.0640
     38 H6         -4.3952    3.8048    4.1779 H         1 <0>         0.0526
     39 H7         -3.3794    5.2657    4.4241 H         1 <0>         0.0543
     40 H8         -2.7831    4.0117    2.8558 H         1 <0>         0.1188
     41 H9          0.7088    1.7090    2.0235 H         1 <0>         0.1232
     42 H10        -2.1048    1.3104    0.4783 H         1 <0>         0.1124
     43 H11        -1.6246    2.1921   -1.0112 H         1 <0>         0.1028
     44 H12         2.1008    1.3567    0.0112 H         1 <0>         0.4396
     45 H13         1.2029    6.3607   -1.1431 H         1 <0>         0.1017
     46 H14         1.3103    7.0982    0.4913 H         1 <0>         0.0992
     47 H15         3.2786    3.3575   -0.2636 H         1 <0>         0.0959
     48 H16         2.3353    4.1427   -1.5751 H         1 <0>         0.1025
     49 H17         3.0533    6.0986   -2.3060 H         1 <0>         0.1337
     50 H18         5.0349    7.3014   -3.1356 H         1 <0>         0.1349
     51 H19         6.6622    7.3352    0.8108 H         1 <0>         0.1361
     52 H20         4.6736    6.1430    1.6389 H         1 <0>         0.1365
@<TRIPOS>BOND
     1    1    2 1
     2    1   35 1
     3    1   36 1
     4    1   37 1
     5    2    3 1
     6    2   38 1
     7    2   39 1
     8    3    4 1
     9    4    9 ar
    10    4    5 ar
    11    5    6 ar
    12    5   40 1
    13    6    7 ar
    14    6   14 1
    15    7    8 ar
    16    7   41 1
    17    8    9 ar
    18    8   11 1
    19    9   10 1
    20   11   12 2
    21   11   13 1
    22   14   15 1
    23   14   21 1
    24   14   16 1
    25   16   17 1
    26   16   42 1
    27   16   43 1
    28   17   18 2
    29   17   19 am
    30   19   20 1
    31   19   44 1
    32   20   27 1
    33   20   21 2
    34   21   22 1
    35   22   23 2
    36   22   24 1
    37   24   25 1
    38   24   45 1
    39   24   46 1
    40   25   26 1
    41   25   27 1
    42   25   28 1
    43   27   47 1
    44   27   48 1
    45   28   33 ar
    46   28   29 ar
    47   29   30 ar
    48   29   49 1
    49   30   31 ar
    50   30   50 1
    51   31   32 ar
    52   31   34 1
    53   32   33 ar
    54   32   51 1
    55   33   52 1
@<TRIPOS>MOLECULE
ZINC33293228
   42    45     0     0     0
SMALL
USER_CHARGES
N-(2,1,3-benzothiadiazol-4-yl)-3-[(4-cyanophenyl)sulfonylamino]benzamide
@<TRIPOS>ATOM
      1 C1          2.3482    1.3406    0.0981 C.ar      1 <0>        -0.1010
      2 C2          1.1512    2.0050    0.2728 C.ar      1 <0>        -0.1542
      3 C3         -0.0422    1.2848    0.3492 C.ar      1 <0>        -0.1255
      4 C4         -0.0196   -0.1064    0.2484 C.ar      1 <0>        -0.0886
      5 C5          1.1880   -0.7643    0.0730 C.ar      1 <0>         0.2204
      6 C6          2.3709   -0.0377   -0.0018 C.ar      1 <0>        -0.1876
      7 N1          1.2163   -2.1574   -0.0289 N.2       1 <0>        -1.0600
      8 S1          2.1112   -2.8826   -1.2187 S.o2      1 <0>         2.5834
      9 O1          3.4224   -2.3426   -1.1268 O.2       1 <0>        -1.0337
     10 O2          1.8535   -4.2771   -1.1279 O.2       1 <0>        -0.9908
     11 C7          1.4538   -2.3485   -2.7638 C.ar      1 <0>        -0.6270
     12 C8          0.3744   -3.0124   -3.3192 C.ar      1 <0>        -0.0271
     13 C9         -0.1484   -2.5966   -4.5262 C.ar      1 <0>        -0.0950
     14 C10         0.4211   -1.5097   -5.1927 C.ar      1 <0>        -0.0069
     15 C11         1.5137   -0.8477   -4.6289 C.ar      1 <0>        -0.0947
     16 C12         2.0230   -1.2709   -3.4188 C.ar      1 <0>        -0.0325
     17 C13        -0.1131   -1.0757   -6.4484 C.1       1 <0>         0.2613
     18 N2         -0.5370   -0.7314   -7.4445 N.1       1 <0>        -0.4245
     19 C14        -1.3263    1.9944    0.5302 C.2       1 <0>         0.5683
     20 O3         -2.3649    1.3656    0.5914 O.2       1 <0>        -0.5213
     21 N3         -1.3456    3.3386    0.6273 N.am      1 <0>        -0.6766
     22 C15        -2.5638    4.0156    0.6983 C.ar      1 <0>         0.2106
     23 C16        -3.6200    3.4529    1.3477 C.ar      1 <0>        -0.1249
     24 C17        -4.8491    4.1027    1.4358 C.ar      1 <0>        -0.0566
     25 C18        -5.0497    5.3222    0.8803 C.ar      1 <0>        -0.1051
     26 C19        -3.9950    5.9723    0.1867 C.ar      1 <0>         0.0845
     27 C20        -2.7030    5.2997    0.0963 C.ar      1 <0>         0.0499
     28 N4         -1.8118    6.0171   -0.5828 N.2       1 <0>        -0.5427
     29 S2         -2.5436    7.3360   -1.0080 S.3       1 <0>         0.7279
     30 N5         -3.9860    7.1561   -0.4226 N.2       1 <0>        -0.5566
     31 H1          3.2704    1.8996    0.0392 H         1 <0>         0.1132
     32 H2          1.1377    3.0822    0.3500 H         1 <0>         0.1066
     33 H3         -0.9396   -0.6690    0.3072 H         1 <0>         0.1284
     34 H4          3.3107   -0.5519   -0.1388 H         1 <0>         0.1456
     35 H5         -0.0625   -3.8554   -2.8047 H         1 <0>         0.1450
     36 H6         -0.9938   -3.1128   -4.9566 H         1 <0>         0.1338
     37 H7          1.9591   -0.0066   -5.1393 H         1 <0>         0.1327
     38 H8          2.8678   -0.7595   -2.9814 H         1 <0>         0.1447
     39 H9         -0.4011    3.9020    0.6506 H         1 <0>         0.4392
     40 H10        -3.5023    2.4813    1.8043 H         1 <0>         0.1580
     41 H11        -5.6624    3.6223    1.9595 H         1 <0>         0.1407
     42 H12        -6.0142    5.8007    0.9651 H         1 <0>         0.1387
@<TRIPOS>BOND
     1    1    6 ar
     2    1    2 ar
     3    1   31 1
     4    2    3 ar
     5    2   32 1
     6    3    4 ar
     7    3   19 1
     8    4    5 ar
     9    4   33 1
    10    5    6 ar
    11    5    7 1
    12    6   34 1
    13    7    8 1
    14    8    9 2
    15    8   10 2
    16    8   11 1
    17   11   16 ar
    18   11   12 ar
    19   12   13 ar
    20   12   35 1
    21   13   14 ar
    22   13   36 1
    23   14   15 ar
    24   14   17 1
    25   15   16 ar
    26   15   37 1
    27   16   38 1
    28   17   18 3
    29   19   20 2
    30   19   21 am
    31   21   22 1
    32   21   39 1
    33   22   27 ar
    34   22   23 ar
    35   23   24 ar
    36   23   40 1
    37   24   25 ar
    38   24   41 1
    39   25   26 ar
    40   25   42 1
    41   26   30 2
    42   26   27 ar
    43   27   28 2
    44   28   29 1
    45   29   30 1
@<TRIPOS>MOLECULE
ZINC39289408
   45    48     0     0     0
SMALL
USER_CHARGES

@<TRIPOS>ATOM
      1 C1         -1.2065   -2.8385   -1.5913 C.3       1 <0>         0.0861
      2 N1         -0.0527   -2.0971   -1.0762 N.pl3     1 <0>        -0.9087
      3 C2          0.0603   -0.7132   -1.3095 C.2       1 <0>        -0.2112
      4 C3          0.6947    0.1444   -0.4373 C.2       1 <0>         0.3145
      5 C4          1.3266   -0.3506    0.7644 C.2       1 <0>        -0.0335
      6 C5          1.6020   -1.6995    1.0324 C.2       1 <0>        -0.6998
      7 C6          2.2101   -1.9722    2.2346 C.2       1 <0>        -0.0722
      8 C7          2.5123   -0.9577    3.0907 C.2       1 <0>        -0.2296
      9 S1          1.9285    0.4800    2.2026 S.3       1 <0>         0.1626
     10 S2          1.1292   -2.8867   -0.2051 S.o2      1 <0>         2.7014
     11 O1          2.2453   -3.0548   -1.0684 O.2       1 <0>        -0.9583
     12 O2          0.5017   -3.9690    0.4687 O.2       1 <0>        -0.9680
     13 O3          0.7269    1.4716   -0.7106 O.3       1 <0>        -0.6152
     14 C8         -0.5020   -0.1803   -2.4898 C.2       1 <0>         0.5809
     15 O4         -0.9214    0.9638   -2.5023 O.2       1 <0>        -0.4612
     16 N2         -0.5749   -0.9369   -3.6028 N.am      1 <0>        -0.6480
     17 C9         -1.0318   -0.3825   -4.7899 C.ar      1 <0>         0.5558
     18 N3         -1.3867    0.8941   -4.8110 N.ar      1 <0>        -0.5000
     19 C10        -1.8280    1.4623   -5.9226 C.ar      1 <0>         0.1780
     20 C11        -1.9185    0.7087   -7.0782 C.ar      1 <0>        -0.2717
     21 C12        -1.5364   -0.6386   -7.0270 C.ar      1 <0>         0.2291
     22 N4         -1.0963   -1.1407   -5.8715 N.ar      1 <0>        -0.5610
     23 C13        -1.6136   -1.4847   -8.2295 C.2       1 <0>        -0.1189
     24 C14        -1.2445   -2.7750   -8.1679 C.2       1 <0>        -0.0577
     25 C15        -1.3218   -3.6217   -9.3715 C.ar      1 <0>        -0.0625
     26 C16        -1.7733   -3.0845  -10.5801 C.ar      1 <0>        -0.1094
     27 C17        -1.8430   -3.8831  -11.7023 C.ar      1 <0>        -0.1219
     28 C18        -1.4677   -5.2133  -11.6336 C.ar      1 <0>        -0.1184
     29 C19        -1.0201   -5.7523  -10.4402 C.ar      1 <0>        -0.1216
     30 C20        -0.9387   -4.9643   -9.3112 C.ar      1 <0>        -0.1005
     31 H1         -1.9738   -2.8985   -0.8195 H         1 <0>         0.0598
     32 H2         -1.6086   -2.3243   -2.4642 H         1 <0>         0.0799
     33 H3         -0.8955   -3.8444   -1.8734 H         1 <0>         0.0649
     34 H4          2.4484   -2.9915    2.5001 H         1 <0>         0.1327
     35 H5          2.9849   -1.0085    4.0605 H         1 <0>         0.1883
     36 H6         -0.3081   -1.8690   -3.5739 H         1 <0>         0.4149
     37 H7         -2.1145    2.5036   -5.9264 H         1 <0>         0.1661
     38 H8         -2.2754    1.1477   -7.9981 H         1 <0>         0.1411
     39 H9         -1.9671   -1.0680   -9.1611 H         1 <0>         0.1339
     40 H10        -0.8911   -3.1916   -7.2363 H         1 <0>         0.1378
     41 H11        -2.0671   -2.0467  -10.6351 H         1 <0>         0.1265
     42 H12        -2.1916   -3.4694  -12.6371 H         1 <0>         0.1227
     43 H13        -1.5248   -5.8340  -12.5155 H         1 <0>         0.1208
     44 H14        -0.7296   -6.7915  -10.3938 H         1 <0>         0.1236
     45 H15        -0.5846   -5.3851   -8.3817 H         1 <0>         0.1279
@<TRIPOS>BOND
     1    1    2 1
     2    1   31 1
     3    1   32 1
     4    1   33 1
     5    2   10 1
     6    2    3 1
     7    3   14 1
     8    3    4 2
     9    4    5 1
    10    4   13 1
    11    5    9 1
    12    5    6 2
    13    6    7 1
    14    6   10 1
    15    7    8 2
    16    7   34 1
    17    8    9 1
    18    8   35 1
    19   10   11 2
    20   10   12 2
    21   14   15 2
    22   14   16 am
    23   16   17 1
    24   16   36 1
    25   17   22 ar
    26   17   18 ar
    27   18   19 ar
    28   19   20 ar
    29   19   37 1
    30   20   21 ar
    31   20   38 1
    32   21   22 ar
    33   21   23 1
    34   23   24 2
    35   23   39 1
    36   24   25 1
    37   24   40 1
    38   25   30 ar
    39   25   26 ar
    40   26   27 ar
    41   26   41 1
    42   27   28 ar
    43   27   42 1
    44   28   29 ar
    45   28   43 1
    46   29   30 ar
    47   29   44 1
    48   30   45 1
@<TRIPOS>MOLECULE
ZINC47162353
   50    53     0     0     0
SMALL
USER_CHARGES

@<TRIPOS>ATOM
      1 C1         -0.2921    1.1497   -3.4675 C.3       1 <0>        -0.1086
      2 C2         -0.3848   -0.3079   -3.0962 C.ar      1 <0>         0.1900
      3 C3          0.4115   -0.7956   -2.0648 C.ar      1 <0>        -0.1936
      4 C4          0.3384   -2.1165   -1.7163 C.ar      1 <0>        -0.0314
      5 C5         -0.5508   -2.9393   -2.4242 C.ar      1 <0>        -0.2045
      6 C6         -0.6837   -4.3152   -2.1227 C.ar      1 <0>         0.2729
      7 C7         -1.5858   -5.0579   -2.8703 C.ar      1 <0>        -0.2671
      8 C8         -2.3172   -4.4387   -3.8733 C.ar      1 <0>         0.2273
      9 N1         -2.1838   -3.1603   -4.1426 N.ar      1 <0>        -0.5096
     10 C9         -1.3336   -2.3822   -3.4634 C.ar      1 <0>         0.3543
     11 N2         -1.2181   -1.0813   -3.7508 N.ar      1 <0>        -0.4735
     12 C10        -3.2934   -5.2575   -4.6782 C.3       1 <0>        -0.1106
     13 N3          0.0635   -4.9020   -1.1135 N.pl3     1 <0>        -0.6632
     14 C11         0.0330   -6.2878   -0.9373 C.ar      1 <0>         0.1859
     15 C12        -0.0346   -6.8256    0.3419 C.ar      1 <0>        -0.1654
     16 C13        -0.0645   -8.1957    0.5125 C.ar      1 <0>         0.0045
     17 C14        -0.0268   -9.0321   -0.5882 C.ar      1 <0>        -0.6294
     18 C15         0.0406   -8.5001   -1.8629 C.ar      1 <0>         0.0039
     19 C16         0.0646   -7.1309   -2.0410 C.ar      1 <0>        -0.1690
     20 S1         -0.0640  -10.7796   -0.3658 S.o2      1 <0>         2.6090
     21 O1          0.5320  -11.3491   -1.5233 O.2       1 <0>        -1.0146
     22 O2          0.4232  -11.0327    0.9448 O.2       1 <0>        -1.0158
     23 N4         -1.6544  -11.2408   -0.3768 N.2       1 <0>        -1.0219
     24 C17        -1.9889  -12.5731   -0.2207 C.2       1 <0>         0.3948
     25 C18        -3.2469  -13.0880   -0.2157 C.2       1 <0>        -0.3684
     26 C19        -3.1477  -14.4735   -0.0324 C.2       1 <0>         0.1195
     27 N5         -1.8839  -14.7826    0.0690 N.2       1 <0>        -0.3843
     28 O3         -1.1282  -13.5913   -0.0528 O.3       1 <0>        -0.1667
     29 C20        -4.3018  -15.4401    0.0363 C.3       1 <0>        -0.0735
     30 C21        -4.5245  -12.3055   -0.3780 C.3       1 <0>        -0.0345
     31 H1         -1.0081    1.7213   -2.8770 H         1 <0>         0.0839
     32 H2          0.7160    1.5124   -3.2666 H         1 <0>         0.0791
     33 H3         -0.5170    1.2698   -4.5272 H         1 <0>         0.0818
     34 H4          1.0854   -0.1336   -1.5413 H         1 <0>         0.1407
     35 H5          0.9482   -2.5149   -0.9189 H         1 <0>         0.1326
     36 H6         -1.7177   -6.1115   -2.6729 H         1 <0>         0.1532
     37 H7         -4.2706   -5.2354   -4.1958 H         1 <0>         0.0864
     38 H8         -3.3746   -4.8421   -5.6826 H         1 <0>         0.0822
     39 H9         -2.9411   -6.2872   -4.7382 H         1 <0>         0.0832
     40 H10         0.6076   -4.3507   -0.5297 H         1 <0>         0.4126
     41 H11        -0.0634   -6.1729    1.2019 H         1 <0>         0.1316
     42 H12        -0.1171   -8.6144    1.5066 H         1 <0>         0.1443
     43 H13         0.0699   -9.1562   -2.7203 H         1 <0>         0.1449
     44 H14         0.1127   -6.7160   -3.0370 H         1 <0>         0.1355
     45 H15        -4.5308  -15.8044   -0.9651 H         1 <0>         0.0759
     46 H16        -4.0339  -16.2809    0.6763 H         1 <0>         0.0677
     47 H17        -5.1754  -14.9344    0.4476 H         1 <0>         0.0766
     48 H18        -4.7835  -12.2477   -1.4352 H         1 <0>         0.0365
     49 H19        -5.3272  -12.8034    0.1660 H         1 <0>         0.0376
     50 H20        -4.3871  -11.2992    0.0179 H         1 <0>         0.0572
@<TRIPOS>BOND
     1    1    2 1
     2    1   31 1
     3    1   32 1
     4    1   33 1
     5    2   11 ar
     6    2    3 ar
     7    3    4 ar
     8    3   34 1
     9    4    5 ar
    10    4   35 1
    11    5   10 ar
    12    5    6 ar
    13    6    7 ar
    14    6   13 1
    15    7    8 ar
    16    7   36 1
    17    8    9 ar
    18    8   12 1
    19    9   10 ar
    20   10   11 ar
    21   12   37 1
    22   12   38 1
    23   12   39 1
    24   13   14 1
    25   13   40 1
    26   14   19 ar
    27   14   15 ar
    28   15   16 ar
    29   15   41 1
    30   16   17 ar
    31   16   42 1
    32   17   18 ar
    33   17   20 1
    34   18   19 ar
    35   18   43 1
    36   19   44 1
    37   20   21 2
    38   20   22 2
    39   20   23 1
    40   23   24 1
    41   24   28 1
    42   24   25 2
    43   25   26 1
    44   25   30 1
    45   26   27 2
    46   26   29 1
    47   27   28 1
    48   29   45 1
    49   29   46 1
    50   29   47 1
    51   30   48 1
    52   30   49 1
    53   30   50 1
@<TRIPOS>MOLECULE
ZINC45967658
   65    68     0     0     0
SMALL
USER_CHARGES

@<TRIPOS>ATOM
      1 C1         -0.1726    1.3675   -0.0890 C.ar      1 <0>        -0.1398
      2 C2          0.8373    2.1046    0.5058 C.ar      1 <0>        -0.0705
      3 C3          1.9022    1.4667    1.1134 C.ar      1 <0>        -0.1712
      4 C4          1.9652    0.0851    1.1313 C.ar      1 <0>         0.1553
      5 C5          0.9477   -0.6643    0.5324 C.ar      1 <0>        -0.1634
      6 C6         -0.1241   -0.0101   -0.0795 C.ar      1 <0>        -0.0504
      7 C7          1.0062   -2.1396    0.5464 C.2       1 <0>         0.5434
      8 O1          1.9407   -2.7058    1.0795 O.2       1 <0>        -0.5304
      9 N1          0.0237   -2.8585   -0.0318 N.am      1 <0>        -0.6277
     10 C8          0.1357   -4.2436   -0.1230 C.ar      1 <0>         0.1221
     11 C9          1.3887   -4.8424   -0.1262 C.ar      1 <0>        -0.1018
     12 C10         1.5011   -6.2141   -0.2169 C.ar      1 <0>        -0.1796
     13 C11         0.3621   -7.0094   -0.3055 C.ar      1 <0>         0.1821
     14 C12        -0.8938   -6.4291   -0.3037 C.ar      1 <0>        -0.1382
     15 C13        -1.0180   -5.0395   -0.2062 C.ar      1 <0>        -0.1210
     16 C14        -2.3500   -4.4145   -0.1975 C.2       1 <0>         0.5282
     17 O2         -3.3487   -5.1005   -0.3674 O.co2     1 <0>        -0.6773
     18 O3         -2.4590   -3.2089   -0.0203 O.co2     1 <0>        -0.6893
     19 N2          0.4878   -8.4000   -0.3972 N.pl3     1 <0>        -0.6366
     20 C15        -0.6915   -9.2521   -0.6125 C.3       1 <0>         0.1287
     21 C16        -0.4079  -10.1866   -1.7934 C.3       1 <0>         0.0425
     22 N3          0.8462  -10.9118   -1.5495 N.3       1 <0>        -0.5194
     23 C17         1.9883   -9.9910   -1.4746 C.3       1 <0>         0.0382
     24 C18         1.8036   -9.0480   -0.2868 C.3       1 <0>         0.1338
     25 C19         1.0665  -11.9416   -2.5737 C.3       1 <0>         0.0374
     26 C20         2.2190  -12.8210   -2.1621 C.2       1 <0>         0.5122
     27 O4          2.7997  -12.6105   -1.1183 O.2       1 <0>        -0.5172
     28 N4          2.6044  -13.8412   -2.9539 N.am      1 <0>        -0.6093
     29 C21         1.8953  -14.0619   -4.1943 C.3       1 <0>         0.1082
     30 C22         0.6990  -15.0136   -3.9467 C.3       1 <0>        -0.1399
     31 C23         1.1780  -16.3805   -3.6907 C.3       1 <0>        -0.1176
     32 C24         2.0378  -16.5209   -2.4382 C.3       1 <0>        -0.1174
     33 C25         3.4694  -16.1824   -2.7736 C.3       1 <0>        -0.1300
     34 C26         3.7368  -14.6836   -2.5216 C.3       1 <0>         0.1120
     35 F1          3.0065   -0.5382    1.7249 F         1 <0>        -0.1169
     36 H1         -1.0035    1.8735   -0.5582 H         1 <0>         0.1358
     37 H2          0.7929    3.1837    0.4947 H         1 <0>         0.1346
     38 H3          2.6868    2.0481    1.5748 H         1 <0>         0.1389
     39 H4         -0.9134   -0.5825   -0.5439 H         1 <0>         0.1457
     40 H5         -0.7614   -2.4111   -0.3845 H         1 <0>         0.4243
     41 H6          2.2774   -4.2325   -0.0577 H         1 <0>         0.1388
     42 H7          2.4785   -6.6737   -0.2196 H         1 <0>         0.1166
     43 H8         -1.7762   -7.0480   -0.3729 H         1 <0>         0.1300
     44 H9         -0.8853   -9.8423    0.2832 H         1 <0>         0.0644
     45 H10        -1.5570   -8.6291   -0.8382 H         1 <0>         0.0923
     46 H11        -1.2259  -10.8994   -1.8978 H         1 <0>         0.0830
     47 H12        -0.3170   -9.6001   -2.7076 H         1 <0>         0.0400
     48 H13         2.9081  -10.5619   -1.3478 H         1 <0>         0.0970
     49 H14         2.0458   -9.4073   -2.3933 H         1 <0>         0.0310
     50 H15         2.5870   -8.2902   -0.2973 H         1 <0>         0.0834
     51 H16         1.8543   -9.6182    0.6408 H         1 <0>         0.0643
     52 H17         0.1666  -12.5476   -2.6790 H         1 <0>         0.1036
     53 H18         1.2962  -11.4636   -3.5260 H         1 <0>         0.0612
     54 H19         1.5284  -13.1096   -4.5770 H         1 <0>         0.0788
     55 H20         2.5704  -14.5098   -4.9236 H         1 <0>         0.0787
     56 H21         0.1314  -14.6629   -3.0847 H         1 <0>         0.0664
     57 H22         0.0525  -15.0163   -4.8242 H         1 <0>         0.0754
     58 H23         0.3138  -17.0375   -3.5927 H         1 <0>         0.0582
     59 H24         1.7623  -16.7091   -4.5502 H         1 <0>         0.0588
     60 H25         1.6737  -15.8399   -1.6690 H         1 <0>         0.0665
     61 H26         1.9827  -17.5462   -2.0723 H         1 <0>         0.0625
     62 H27         4.1371  -16.7784   -2.1515 H         1 <0>         0.0745
     63 H28         3.6580  -16.4089   -3.8230 H         1 <0>         0.0648
     64 H29         4.6305  -14.3829   -3.0684 H         1 <0>         0.0609
     65 H30         3.9069  -14.5284   -1.4562 H         1 <0>         0.0903
@<TRIPOS>BOND
     1    1    6 ar
     2    1    2 ar
     3    1   36 1
     4    2    3 ar
     5    2   37 1
     6    3    4 ar
     7    3   38 1
     8    4    5 ar
     9    4   35 1
    10    5    6 ar
    11    5    7 1
    12    6   39 1
    13    7    8 2
    14    7    9 am
    15    9   10 1
    16    9   40 1
    17   10   15 ar
    18   10   11 ar
    19   11   12 ar
    20   11   41 1
    21   12   13 ar
    22   12   42 1
    23   13   14 ar
    24   13   19 1
    25   14   15 ar
    26   14   43 1
    27   15   16 1
    28   16   17 2
    29   16   18 1
    30   19   24 1
    31   19   20 1
    32   20   21 1
    33   20   44 1
    34   20   45 1
    35   21   22 1
    36   21   46 1
    37   21   47 1
    38   22   23 1
    39   22   25 1
    40   23   24 1
    41   23   48 1
    42   23   49 1
    43   24   50 1
    44   24   51 1
    45   25   26 1
    46   25   52 1
    47   25   53 1
    48   26   27 2
    49   26   28 am
    50   28   34 1
    51   28   29 1
    52   29   30 1
    53   29   54 1
    54   29   55 1
    55   30   31 1
    56   30   56 1
    57   30   57 1
    58   31   32 1
    59   31   58 1
    60   31   59 1
    61   32   33 1
    62   32   60 1
    63   32   61 1
    64   33   34 1
    65   33   62 1
    66   33   63 1
    67   34   64 1
    68   34   65 1
@<TRIPOS>MOLECULE
ZINC13391899
   52    54     0     0     0
SMALL
USER_CHARGES
2-[[4-[(2S,6R)-2,6-dimethylmorpholin-4-yl]sulfonylbenzoyl]amino]terephthalic acid
@<TRIPOS>ATOM
      1 C1         -4.3299    1.3915    0.1028 C.3       1 <0>        -0.1447
      2 C2         -2.8505    1.7810    0.0778 C.3       1 <0>         0.0791
      3 H1         -2.7579    2.8642    0.1573 H         1 <0>         0.0639
      4 C3         -2.2187    1.3082   -1.2364 C.3       1 <0>         0.0851
      5 N1         -0.7656    1.5264   -1.1577 N.pl3     1 <0>        -1.0014
      6 C4         -0.0533    1.0200    0.0262 C.3       1 <0>         0.0846
      7 C5         -0.7898    1.5069    1.2794 C.3       1 <0>         0.0793
      8 H2         -0.6896    2.5890    1.3633 H         1 <0>         0.0643
      9 O1         -2.1741    1.1620    1.1747 O.3       1 <0>        -0.3729
     10 C6         -0.1879    0.8394    2.5176 C.3       1 <0>        -0.1449
     11 S1          0.0443    2.3178   -2.3660 S.o2      1 <0>         2.6934
     12 O2         -0.9116    3.1341   -3.0287 O.2       1 <0>        -0.9550
     13 O3          1.2260    2.8492   -1.7825 O.2       1 <0>        -0.9528
     14 C7          0.5611    1.1009   -3.5307 C.ar      1 <0>        -0.6696
     15 C8          1.7954    0.4920   -3.3887 C.ar      1 <0>        -0.0269
     16 C9          2.2038   -0.4657   -4.2938 C.ar      1 <0>        -0.1023
     17 C10         1.3734   -0.8118   -5.3613 C.ar      1 <0>        -0.0541
     18 C11         0.1317   -0.1895   -5.5018 C.ar      1 <0>        -0.0835
     19 C12        -0.2668    0.7624   -4.5864 C.ar      1 <0>        -0.0323
     20 C13         1.8071   -1.8323   -6.3385 C.2       1 <0>         0.5274
     21 O4          1.0821   -2.1313   -7.2672 O.2       1 <0>        -0.5129
     22 N2          3.0065   -2.4312   -6.2000 N.am      1 <0>        -0.6301
     23 C14         3.3667   -3.4728   -7.0503 C.ar      1 <0>         0.1473
     24 C15         2.3871   -4.2430   -7.6612 C.ar      1 <0>        -0.1103
     25 C16         2.7517   -5.2843   -8.5112 C.ar      1 <0>        -0.1018
     26 C17         4.1022   -5.5542   -8.7502 C.ar      1 <0>        -0.1097
     27 C18         5.0775   -4.7937   -8.1465 C.ar      1 <0>        -0.0783
     28 C19         4.7209   -3.7434   -7.2968 C.ar      1 <0>        -0.1536
     29 C20         5.7672   -2.9240   -6.6549 C.2       1 <0>         0.5065
     30 O5          5.4601   -2.0733   -5.8438 O.co2     1 <0>        -0.6470
     31 C21         1.7078   -6.1058   -9.1628 C.2       1 <0>         0.4967
     32 O6          0.5342   -5.8720   -8.9562 O.co2     1 <0>        -0.6339
     33 H3         -4.4217    0.3081    0.0251 H         1 <0>         0.0678
     34 H4         -4.7785    1.7280    1.0375 H         1 <0>         0.0663
     35 H5         -4.8435    1.8608   -0.7363 H         1 <0>         0.0758
     36 H6         -2.6311    1.8792   -2.0683 H         1 <0>         0.1046
     37 H7         -2.4234    0.2474   -1.3814 H         1 <0>         0.0822
     38 H8         -0.0400   -0.0697    0.0084 H         1 <0>         0.0826
     39 H9          0.9684    1.3996    0.0301 H         1 <0>         0.1056
     40 H10         0.8680    1.0991    2.5932 H         1 <0>         0.0765
     41 H11        -0.7120    1.1861    3.4082 H         1 <0>         0.0663
     42 H12        -0.2908   -0.2424    2.4334 H         1 <0>         0.0679
     43 H13         2.4389    0.7642   -2.5652 H         1 <0>         0.1442
     44 H14         3.1656   -0.9434   -4.1794 H         1 <0>         0.1489
     45 H15        -0.5156   -0.4530   -6.3252 H         1 <0>         0.1493
     46 H16        -1.2270    1.2449   -4.6942 H         1 <0>         0.1427
     47 H17         3.6187   -2.1364   -5.5077 H         1 <0>         0.4235
     48 H18         1.3432   -4.0350   -7.4779 H         1 <0>         0.1464
     49 H19         4.3811   -6.3622   -9.4102 H         1 <0>         0.1264
     50 H20         6.1198   -5.0058   -8.3336 H         1 <0>         0.1286
     51 O7          7.0629   -3.1195   -6.9684 O.co2     1 <0>        -0.7508
     52 O8          2.0592   -7.1131   -9.9851 O.co2     1 <0>        -0.7644
@<TRIPOS>BOND
     1    1    2 1
     2    1   33 1
     3    1   34 1
     4    1   35 1
     5    2    3 1
     6    2    9 1
     7    2    4 1
     8    4    5 1
     9    4   36 1
    10    4   37 1
    11    5    6 1
    12    5   11 1
    13    6    7 1
    14    6   38 1
    15    6   39 1
    16    7    8 1
    17    7    9 1
    18    7   10 1
    19   10   40 1
    20   10   41 1
    21   10   42 1
    22   11   12 2
    23   11   13 2
    24   11   14 1
    25   14   19 ar
    26   14   15 ar
    27   15   16 ar
    28   15   43 1
    29   16   17 ar
    30   16   44 1
    31   17   18 ar
    32   17   20 1
    33   18   19 ar
    34   18   45 1
    35   19   46 1
    36   20   21 2
    37   20   22 am
    38   22   23 1
    39   22   47 1
    40   23   28 ar
    41   23   24 ar
    42   24   25 ar
    43   24   48 1
    44   25   26 ar
    45   25   31 1
    46   26   27 ar
    47   26   49 1
    48   27   28 ar
    49   27   50 1
    50   28   29 1
    51   29   30 2
    52   29   51 1
    53   31   32 2
    54   31   52 1
@<TRIPOS>MOLECULE
ZINC16906368
   41    43     0     0     0
SMALL
USER_CHARGES
6-[(E)-[2-[(2-bromophenyl)amino]-4-oxo-thiazol-5-ylidene]methyl]-2,3-dimethoxy-benzoic acid
@<TRIPOS>ATOM
      1 C1         -4.0075   -5.1638    0.6609 C.3       1 <0>         0.0249
      2 O1         -2.6906   -5.6783    0.4533 O.3       1 <0>        -0.3109
      3 C2         -1.6837   -4.7722    0.3498 C.ar      1 <0>         0.1121
      4 C3         -1.9626   -3.4167    0.4463 C.ar      1 <0>        -0.2187
      5 C4         -0.9502   -2.4840    0.3490 C.ar      1 <0>        -0.0085
      6 C5          0.3673   -2.8974    0.1402 C.ar      1 <0>        -0.0772
      7 C6          0.6602   -4.2774    0.0402 C.ar      1 <0>        -0.0417
      8 C7         -0.3751   -5.2095    0.1466 C.ar      1 <0>         0.0602
      9 O2         -0.1082   -6.5367    0.0521 O.3       1 <0>        -0.3171
     10 C8          0.1975   -7.2251    1.2665 C.3       1 <0>         0.0336
     11 C9          2.0450   -4.7282   -0.1748 C.2       1 <0>         0.5093
     12 O3          2.7639   -4.9585    0.7776 O.co2     1 <0>        -0.6235
     13 O4          2.5156   -4.8856   -1.4280 O.co2     1 <0>        -0.7472
     14 C10         1.4424   -1.9059    0.0312 C.2       1 <0>         0.0364
     15 C11         1.4655   -0.8351    0.8655 C.2       1 <0>        -0.2212
     16 C12         0.6197   -0.5316    2.0460 C.2       1 <0>         0.5337
     17 O5         -0.2634   -1.2876    2.4172 O.2       1 <0>        -0.5194
     18 N1          0.8750    0.5968    2.6700 N.2       1 <0>        -0.7147
     19 C13         1.8301    1.4253    2.2780 C.2       1 <0>         0.4538
     20 S1          2.5244    0.6061    0.8509 S.3       1 <0>        -0.1245
     21 N2          2.1973    2.6229    2.8330 N.2       1 <0>        -0.5700
     22 C14         1.6131    3.0468    4.0307 C.ar      1 <0>         0.1944
     23 C15         0.7805    2.1909    4.7402 C.ar      1 <0>        -0.1847
     24 C16         0.2050    2.6126    5.9227 C.ar      1 <0>        -0.0934
     25 C17         0.4571    3.8855    6.4012 C.ar      1 <0>        -0.1831
     26 C18         1.2857    4.7405    5.6982 C.ar      1 <0>        -0.0824
     27 C19         1.8688    4.3234    4.5167 C.ar      1 <0>        -0.1193
     28 Br1         3.0076    5.4905    3.5592 Br        1 <0>        -0.0750
     29 H1         -4.7211   -5.9984    0.7261 H         1 <0>         0.0917
     30 H2         -4.2828   -4.5107   -0.1804 H         1 <0>         0.0521
     31 H3         -4.0322   -4.5863    1.5968 H         1 <0>         0.0530
     32 H4         -2.9796   -3.0889    0.6030 H         1 <0>         0.1249
     33 H5         -1.1779   -1.4314    0.4305 H         1 <0>         0.1256
     34 H6          0.3918   -8.2855    1.0479 H         1 <0>         0.0824
     35 H7         -0.6536   -7.1433    1.9585 H         1 <0>         0.0357
     36 H8          1.0896   -6.7763    1.7278 H         1 <0>         0.0556
     37 H9          2.2301   -2.0298   -0.7266 H         1 <0>         0.1399
     38 H10         0.5836    1.1965    4.3678 H         1 <0>         0.1801
     39 H11        -0.4424    1.9474    6.4746 H         1 <0>         0.1093
     40 H12         0.0059    4.2124    7.3264 H         1 <0>         0.1093
     41 H13         1.4810    5.7335    6.0750 H         1 <0>         0.1147
@<TRIPOS>BOND
     1    1    2 1
     2    1   29 1
     3    1   30 1
     4    1   31 1
     5    2    3 1
     6    3    8 ar
     7    3    4 ar
     8    4    5 ar
     9    4   32 1
    10    5    6 ar
    11    5   33 1
    12    6    7 ar
    13    6   14 1
    14    7    8 ar
    15    7   11 1
    16    8    9 1
    17    9   10 1
    18   10   34 1
    19   10   35 1
    20   10   36 1
    21   11   12 2
    22   11   13 1
    23   14   15 2
    24   14   37 1
    25   15   20 1
    26   15   16 1
    27   16   17 2
    28   16   18 1
    29   18   19 2
    30   19   20 1
    31   19   21 1
    32   21   22 1
    33   22   27 ar
    34   22   23 ar
    35   23   24 ar
    36   23   38 1
    37   24   25 ar
    38   24   39 1
    39   25   26 ar
    40   25   40 1
    41   26   27 ar
    42   26   41 1
    43   27   28 1
@<TRIPOS>MOLECULE
ZINC39667769
   45    48     0     0     0
SMALL
USER_CHARGES

@<TRIPOS>ATOM
      1 C1         -0.1961    1.5498   -0.0158 C.3       1 <0>        -0.1351
      2 C2         -0.1431    0.0438   -0.0168 C.2       1 <0>         0.0985
      3 C3         -0.1144   -0.6463   -1.1637 C.2       1 <0>        -0.3372
      4 C4         -0.0629   -2.1229   -1.0759 C.2       1 <0>         0.2838
      5 N1         -0.0333   -2.8548   -2.1597 N.2       1 <0>        -0.5362
      6 C5         -0.0484   -2.2990   -3.3717 C.2       1 <0>         0.3984
      7 N2         -0.0936   -0.9925   -3.5676 N.2       1 <0>        -0.6385
      8 C6         -0.1280   -0.1149   -2.5653 C.2       1 <0>         0.5637
      9 O1         -0.1697    1.0849   -2.7820 O.2       1 <0>        -0.4787
     10 S1         -0.0056   -3.3570   -4.7800 S.3       1 <0>         0.1153
     11 C7         -0.0408   -2.2145   -6.1885 C.3       1 <0>        -0.1516
     12 C8         -0.0081   -3.0005   -7.4739 C.2       1 <0>         0.5330
     13 O2          0.0347   -4.2122   -7.4428 O.2       1 <0>        -0.5275
     14 N3         -0.0264   -2.3570   -8.6579 N.am      1 <0>        -0.6336
     15 C9          0.0925   -3.0781   -9.8450 C.ar      1 <0>         0.1881
     16 C10        -0.4753   -4.3156   -9.9439 C.ar      1 <0>        -0.1423
     17 C11        -0.3594   -5.0482  -11.1364 C.ar      1 <0>        -0.0320
     18 C12        -0.9364   -6.3243  -11.2602 C.ar      1 <0>        -0.1047
     19 C13        -0.8090   -7.0123  -12.4275 C.ar      1 <0>        -0.1269
     20 C14        -0.1128   -6.4718  -13.5077 C.ar      1 <0>        -0.1390
     21 C15         0.4597   -5.2403  -13.4264 C.ar      1 <0>        -0.0950
     22 C16         0.3490   -4.4975  -12.2363 C.ar      1 <0>        -0.0730
     23 C17         0.9270   -3.2258  -12.1223 C.ar      1 <0>        -0.0633
     24 C18         0.7949   -2.5184  -10.9363 C.ar      1 <0>        -0.1492
     25 C19         1.3945   -1.1798  -10.8118 C.2       1 <0>         0.5243
     26 O3          1.9149   -0.6498  -11.7839 O.co2     1 <0>        -0.6795
     27 O4          1.3723   -0.5972   -9.7363 O.co2     1 <0>        -0.6801
     28 S2         -0.0570   -2.4703    0.6651 S.3       1 <0>         0.0470
     29 C20        -0.1145   -0.7373    1.2771 C.3       1 <0>        -0.1419
     30 H1          0.7759   -0.4974    1.8582 H         1 <0>         0.1553
     31 C21        -1.3643   -0.4927    2.0829 C.2       1 <0>         0.5248
     32 O5         -2.3064   -1.2615    1.9950 O.co2     1 <0>        -0.6428
     33 O6         -1.4332    0.4740    2.8226 O.co2     1 <0>        -0.6553
     34 H2          0.8182    1.9490   -0.0165 H         1 <0>         0.0937
     35 H3         -0.7232    1.8955   -0.9050 H         1 <0>         0.0990
     36 H4         -0.7215    1.8943    0.8749 H         1 <0>         0.0970
     37 H5         -0.9526   -1.6185   -6.1502 H         1 <0>         0.1291
     38 H6          0.8262   -1.5554   -6.1435 H         1 <0>         0.1346
     39 H7         -0.1224   -1.3921   -8.6841 H         1 <0>         0.4292
     40 H8         -1.0135   -4.7314   -9.1049 H         1 <0>         0.1414
     41 H9         -1.4782   -6.7570  -10.4322 H         1 <0>         0.1218
     42 H10        -1.2537   -7.9922  -12.5184 H         1 <0>         0.1141
     43 H11        -0.0264   -7.0393  -14.4226 H         1 <0>         0.1137
     44 H12         0.9966   -4.8347  -14.2712 H         1 <0>         0.1218
     45 H13         1.4682   -2.7980  -12.9532 H         1 <0>         0.1361
@<TRIPOS>BOND
     1    1    2 1
     2    1   34 1
     3    1   35 1
     4    1   36 1
     5    2   29 1
     6    2    3 2
     7    3    8 1
     8    3    4 1
     9    4    5 2
    10    4   28 1
    11    5    6 1
    12    6    7 2
    13    6   10 1
    14    7    8 1
    15    8    9 2
    16   10   11 1
    17   11   12 1
    18   11   37 1
    19   11   38 1
    20   12   13 2
    21   12   14 am
    22   14   15 1
    23   14   39 1
    24   15   24 ar
    25   15   16 ar
    26   16   17 ar
    27   16   40 1
    28   17   22 ar
    29   17   18 ar
    30   18   19 ar
    31   18   41 1
    32   19   20 ar
    33   19   42 1
    34   20   21 ar
    35   20   43 1
    36   21   22 ar
    37   21   44 1
    38   22   23 ar
    39   23   24 ar
    40   23   45 1
    41   24   25 1
    42   25   26 2
    43   25   27 1
    44   28   29 1
    45   29   30 1
    46   29   31 1
    47   31   32 2
    48   31   33 1
@<TRIPOS>MOLECULE
ZINC13214892
   47    50     0     0     0
SMALL
USER_CHARGES

@<TRIPOS>ATOM
      1 C1          1.2016    1.4892   -1.1952 C.ar      1 <0>        -0.1581
      2 C2          1.2294    2.1558    0.0161 C.ar      1 <0>        -0.0815
      3 C3          1.2623    1.4417    1.1980 C.ar      1 <0>        -0.2069
      4 C4          1.2672    0.0545    1.1692 C.ar      1 <0>         0.1436
      5 C5          1.2388   -0.6117   -0.0471 C.ar      1 <0>        -0.0947
      6 C6          1.2064    0.1072   -1.2266 C.ar      1 <0>        -0.0544
      7 C7          1.2444   -2.1183   -0.0821 C.3       1 <0>         0.2676
      8 H1          1.9537   -2.5072    0.6485 H         1 <0>         0.0786
      9 C8          1.6051   -2.6047   -1.4664 C.2       1 <0>        -0.4776
     10 C9          0.5509   -3.3256   -1.9136 C.2       1 <0>         0.2924
     11 C10        -0.5019   -3.3396   -0.8794 C.2       1 <0>         0.5142
     12 O1         -1.5728   -3.9052   -0.9822 O.2       1 <0>        -0.5215
     13 N1         -0.1010   -2.6347    0.1959 N.am      1 <0>        -0.5603
     14 C11        -0.8352   -2.4303    1.3685 C.ar      1 <0>         0.1673
     15 C12        -1.6110   -1.2911    1.5105 C.ar      1 <0>        -0.0559
     16 C13        -2.3426   -1.0921    2.6833 C.ar      1 <0>        -0.1272
     17 C14        -2.2872   -2.0435    3.7060 C.ar      1 <0>        -0.0786
     18 C15        -1.5118   -3.1737    3.5550 C.ar      1 <0>        -0.1281
     19 C16        -0.7911   -3.3739    2.3904 C.ar      1 <0>        -0.0265
     20 Cl1         0.1766   -4.8034    2.2068 Cl        1 <0>        -0.0813
     21 C17        -3.1704    0.1180    2.8425 C.2       1 <0>         0.5252
     22 O2         -3.2170    0.9493    1.9466 O.co2     1 <0>        -0.6804
     23 O3         -3.8103    0.2903    3.8704 O.co2     1 <0>        -0.6922
     24 O4          0.4739   -3.9370   -3.1191 O.3       1 <0>        -0.6084
     25 C18         2.8569   -2.3456   -2.1866 C.2       1 <0>         0.4923
     26 O5          2.9793   -2.7051   -3.3444 O.2       1 <0>        -0.4795
     27 C19         3.9604   -1.6543   -1.5132 C.2       1 <0>        -0.0409
     28 C20         5.1422   -1.2513   -2.0965 C.2       1 <0>        -0.1738
     29 C21         5.8966   -0.6366   -1.0867 C.2       1 <0>        -0.2269
     30 C22         5.1622   -0.6874    0.0479 C.2       1 <0>        -0.0391
     31 O6          3.9974   -1.2942   -0.2135 O.3       1 <0>        -0.1372
     32 O7          1.3000   -0.6503    2.3307 O.3       1 <0>        -0.2941
     33 C23         1.4432    0.0979    3.5397 C.3       1 <0>         0.1538
     34 C24         1.5787   -0.8276    4.6763 C.1       1 <0>         0.2196
     35 N2          1.6832   -1.5418    5.5535 N.1       1 <0>        -0.4046
     36 H2          1.1717    2.0493   -2.1181 H         1 <0>         0.1167
     37 H3          1.2256    3.2355    0.0380 H         1 <0>         0.1173
     38 H4          1.2847    1.9627    2.1437 H         1 <0>         0.1236
     39 H5          1.1847   -0.4111   -2.1739 H         1 <0>         0.1338
     40 H6         -1.6495   -0.5594    0.7170 H         1 <0>         0.1330
     41 H7         -2.8516   -1.8932    4.6145 H         1 <0>         0.1315
     42 H8         -1.4701   -3.9074    4.3464 H         1 <0>         0.1224
     43 H9          5.4310   -1.3833   -3.1288 H         1 <0>         0.1481
     44 H10         6.8801   -0.2036   -1.1948 H         1 <0>         0.1418
     45 H11         5.4647   -0.2978    1.0087 H         1 <0>         0.1938
     46 H12         2.3315    0.7263    3.4750 H         1 <0>         0.1035
     47 H13         0.5640    0.7255    3.6849 H         1 <0>         0.1097
@<TRIPOS>BOND
     1    1    6 ar
     2    1    2 ar
     3    1   36 1
     4    2    3 ar
     5    2   37 1
     6    3    4 ar
     7    3   38 1
     8    4    5 ar
     9    4   32 1
    10    5    6 ar
    11    5    7 1
    12    6   39 1
    13    7    8 1
    14    7   13 1
    15    7    9 1
    16    9   10 2
    17    9   25 1
    18   10   11 1
    19   10   24 1
    20   11   12 2
    21   11   13 am
    22   13   14 1
    23   14   19 ar
    24   14   15 ar
    25   15   16 ar
    26   15   40 1
    27   16   17 ar
    28   16   21 1
    29   17   18 ar
    30   17   41 1
    31   18   19 ar
    32   18   42 1
    33   19   20 1
    34   21   22 2
    35   21   23 1
    36   25   26 2
    37   25   27 1
    38   27   31 1
    39   27   28 2
    40   28   29 1
    41   28   43 1
    42   29   30 2
    43   29   44 1
    44   30   31 1
    45   30   45 1
    46   32   33 1
    47   33   34 1
    48   33   46 1
    49   33   47 1
    50   34   35 3
@<TRIPOS>MOLECULE
ZINC16930942
   50    52     0     0     0
SMALL
USER_CHARGES

@<TRIPOS>ATOM
      1 C1         -0.4112   -0.2209    0.4805 C.3       1 <0>        -0.1482
      2 C2         -0.3996   -1.7193    0.1714 C.3       1 <0>        -0.1018
      3 C3         -1.8307   -2.1996   -0.0786 C.3       1 <0>         0.0127
      4 H1         -2.4564   -1.9365    0.7743 H         1 <0>         0.0669
      5 C4         -1.8338   -3.6954   -0.2616 C.2       1 <0>         0.4798
      6 O1         -1.5186   -4.4235    0.6642 O.co2     1 <0>        -0.6945
      7 O2         -2.1515   -4.1775   -1.3354 O.co2     1 <0>        -0.6721
      8 O3         -2.3439   -1.5745   -1.2566 O.3       1 <0>        -0.2924
      9 C5         -3.6941   -1.4511   -1.3514 C.ar      1 <0>         0.1598
     10 C6         -4.5082   -1.9376   -0.3362 C.ar      1 <0>        -0.1812
     11 C7         -5.8831   -1.8162   -0.4255 C.ar      1 <0>        -0.0768
     12 C8         -6.4571   -1.2109   -1.5238 C.ar      1 <0>        -0.1417
     13 C9         -5.6465   -0.7170   -2.5519 C.ar      1 <0>        -0.0562
     14 C10        -4.2561   -0.8362   -2.4560 C.ar      1 <0>        -0.1301
     15 C11        -6.2531   -0.0714   -3.7250 C.2       1 <0>         0.0601
     16 C12        -7.5540    0.3112   -3.6916 C.2       1 <0>        -0.2092
     17 C13        -8.4121    0.8128   -4.7844 C.2       1 <0>         0.5617
     18 O4         -7.9895    0.9399   -5.9184 O.2       1 <0>        -0.5063
     19 N1         -9.6608    1.1168   -4.4732 N.am      1 <0>        -0.5379
     20 C14       -10.1206    0.9659   -3.1848 C.2       1 <0>         0.3577
     21 N2        -11.3224    1.2192   -2.7098 N.2       1 <0>        -0.3837
     22 C15       -11.5752    1.0662   -1.3814 C.ar      1 <0>         0.1115
     23 C16       -10.7685    1.7034   -0.4334 C.ar      1 <0>        -0.1409
     24 C17       -11.0275    1.5467    0.9090 C.ar      1 <0>        -0.1297
     25 C18       -12.0904    0.7553    1.3365 C.ar      1 <0>         0.0767
     26 C19       -12.9004    0.1165    0.4190 C.ar      1 <0>        -0.0959
     27 C20       -12.6577    0.2675   -0.9510 C.ar      1 <0>        -0.1018
     28 C21       -13.5177   -0.4038   -1.9329 C.2       1 <0>         0.5189
     29 O5        -14.4546   -1.0950   -1.5547 O.co2     1 <0>        -0.6918
     30 O6        -13.2980   -0.2726   -3.1299 O.co2     1 <0>        -0.6586
     31 O7        -12.3320    0.6103    2.6669 O.3       1 <0>        -0.4995
     32 S1         -8.6937    0.3368   -2.3154 S.3       1 <0>        -0.0335
     33 C22       -10.5642    1.6201   -5.5108 C.3       1 <0>         0.0743
     34 H2          0.6083    0.1212    0.6586 H         1 <0>         0.0489
     35 H3         -0.8339    0.3213   -0.3653 H         1 <0>         0.0567
     36 H4         -1.0162   -0.0378    1.3685 H         1 <0>         0.0489
     37 H5          0.2054   -1.9025   -0.7166 H         1 <0>         0.0658
     38 H6          0.0230   -2.2615    1.0172 H         1 <0>         0.0826
     39 H7         -4.0655   -2.4130    0.5265 H         1 <0>         0.1307
     40 H8         -6.5094   -2.1972    0.3675 H         1 <0>         0.1268
     41 H9         -7.5311   -1.1186   -1.5904 H         1 <0>         0.1353
     42 H10        -3.6237   -0.4538   -3.2436 H         1 <0>         0.1330
     43 H11        -5.6630    0.0983   -4.6134 H         1 <0>         0.1559
     44 H12        -9.9413    2.3187   -0.7551 H         1 <0>         0.1262
     45 H13       -10.4011    2.0412    1.6367 H         1 <0>         0.1254
     46 H14       -13.7230   -0.4957    0.7581 H         1 <0>         0.1382
     47 H15       -12.9344    1.2729    3.0318 H         1 <0>         0.3801
     48 H16       -10.0325    1.6736   -6.4608 H         1 <0>         0.0897
     49 H17       -11.4160    0.9471   -5.6086 H         1 <0>         0.0863
     50 H18       -10.9163    2.6142   -5.2350 H         1 <0>         0.0734
@<TRIPOS>BOND
     1    1    2 1
     2    1   34 1
     3    1   35 1
     4    1   36 1
     5    2    3 1
     6    2   37 1
     7    2   38 1
     8    3    4 1
     9    3    5 1
    10    3    8 1
    11    5    6 2
    12    5    7 1
    13    8    9 1
    14    9   14 ar
    15    9   10 ar
    16   10   11 ar
    17   10   39 1
    18   11   12 ar
    19   11   40 1
    20   12   13 ar
    21   12   41 1
    22   13   14 ar
    23   13   15 1
    24   14   42 1
    25   15   16 2
    26   15   43 1
    27   16   32 1
    28   16   17 1
    29   17   18 2
    30   17   19 am
    31   19   20 1
    32   19   33 1
    33   20   21 2
    34   20   32 1
    35   21   22 1
    36   22   27 ar
    37   22   23 ar
    38   23   24 ar
    39   23   44 1
    40   24   25 ar
    41   24   45 1
    42   25   26 ar
    43   25   31 1
    44   26   27 ar
    45   26   46 1
    46   27   28 1
    47   28   29 2
    48   28   30 1
    49   31   47 1
    50   33   48 1
    51   33   49 1
    52   33   50 1
@<TRIPOS>MOLECULE
ZINC13347787
   53    57     0     0     0
SMALL
USER_CHARGES
4-[[[2-[(5-oxo-4-phenyl-[1,2,4]triazolo[4,5-a]quinazolin-1-yl)sulfanyl]acetyl]amino]methyl]benzoic acid
@<TRIPOS>ATOM
      1 C1         -5.0116    4.5075  -11.6622 C.ar      1 <0>        -0.0999
      2 C2         -5.3025    3.3902  -10.9009 C.ar      1 <0>        -0.1097
      3 C3         -4.2847    2.6873  -10.2866 C.ar      1 <0>        -0.0894
      4 C4         -2.9679    3.1037  -10.4340 C.ar      1 <0>         0.1198
      5 C5         -2.6797    4.2295  -11.1946 C.ar      1 <0>        -0.0894
      6 C6         -3.7016    4.9246  -11.8110 C.ar      1 <0>        -0.1097
      7 N1         -1.9340    2.3935   -9.8127 N.am      1 <0>        -0.4633
      8 C7         -1.3332    1.3808  -10.4715 C.2       1 <0>         0.5698
      9 O1         -1.6840    1.0823  -11.5974 O.2       1 <0>        -0.4798
     10 C8         -0.2456    0.6416   -9.8058 C.ar      1 <0>        -0.1570
     11 C9          0.4084   -0.4121  -10.4418 C.ar      1 <0>        -0.0236
     12 C10         1.4218   -1.0800   -9.7870 C.ar      1 <0>        -0.1269
     13 C11         1.7908   -0.7083   -8.5037 C.ar      1 <0>        -0.0498
     14 C12         1.1507    0.3339   -7.8629 C.ar      1 <0>        -0.1295
     15 C13         0.1295    1.0170   -8.5055 C.ar      1 <0>         0.1677
     16 N2         -0.5292    2.0738   -7.8898 N.pl3     1 <0>        -0.4211
     17 C14        -1.5415    2.7408   -8.5292 C.2       1 <0>         0.4144
     18 N3         -1.9659    3.6683   -7.7045 N.2       1 <0>        -0.2659
     19 N4         -1.2998    3.6223   -6.6065 N.2       1 <0>        -0.2548
     20 C15        -0.4077    2.6625   -6.6602 C.2       1 <0>         0.1566
     21 S1          0.7347    2.2202   -5.3937 S.3       1 <0>         0.0955
     22 C16         0.3741    3.3854   -4.0510 C.3       1 <0>        -0.1555
     23 C17         1.2940    3.1129   -2.8888 C.2       1 <0>         0.5351
     24 O2          2.1124    2.2205   -2.9595 O.2       1 <0>        -0.5305
     25 N5          1.2074    3.8608   -1.7710 N.am      1 <0>        -0.7113
     26 C18         2.1017    3.5959   -0.6413 C.3       1 <0>         0.1695
     27 C19         1.8021    4.5639    0.4742 C.ar      1 <0>        -0.1284
     28 C20         2.4702    5.7741    0.5338 C.ar      1 <0>        -0.1168
     29 C21         2.1974    6.6669    1.5495 C.ar      1 <0>        -0.0807
     30 C22         1.2523    6.3423    2.5247 C.ar      1 <0>        -0.0995
     31 C23         0.5856    5.1171    2.4614 C.ar      1 <0>        -0.0897
     32 C24         0.8644    4.2359    1.4373 C.ar      1 <0>        -0.1160
     33 C25         0.9586    7.2912    3.6182 C.2       1 <0>         0.4857
     34 O3          0.1356    7.0063    4.4649 O.co2     1 <0>        -0.6288
     35 H1         -5.8093    5.0552  -12.1419 H         1 <0>         0.1312
     36 H2         -6.3266    3.0672  -10.7864 H         1 <0>         0.1332
     37 H3         -4.5125    1.8147   -9.6925 H         1 <0>         0.1252
     38 H4         -1.6573    4.5586  -11.3071 H         1 <0>         0.1252
     39 H5         -3.4778    5.7976  -12.4062 H         1 <0>         0.1332
     40 H6          0.1230   -0.7043  -11.4416 H         1 <0>         0.1534
     41 H7          1.9307   -1.8970  -10.2768 H         1 <0>         0.1467
     42 H8          2.5856   -1.2388   -8.0005 H         1 <0>         0.1492
     43 H9          1.4452    0.6167   -6.8631 H         1 <0>         0.1477
     44 H10        -0.6608    3.2627   -3.7316 H         1 <0>         0.1300
     45 H11         0.5270    4.4052   -4.4040 H         1 <0>         0.1300
     46 H12         0.5529    4.5745   -1.7145 H         1 <0>         0.4080
     47 H13         1.9488    2.5761   -0.2882 H         1 <0>         0.0771
     48 H14         3.1366    3.7186   -0.9606 H         1 <0>         0.0773
     49 H15         3.2040    6.0221   -0.2188 H         1 <0>         0.1179
     50 H16         2.7163    7.6131    1.5923 H         1 <0>         0.1327
     51 H17        -0.1468    4.8600    3.2123 H         1 <0>         0.1288
     52 H18         0.3492    3.2881    1.3870 H         1 <0>         0.1176
     53 O4          1.6036    8.4725    3.6763 O.co2     1 <0>        -0.7517
@<TRIPOS>BOND
     1    1    6 ar
     2    1    2 ar
     3    1   35 1
     4    2    3 ar
     5    2   36 1
     6    3    4 ar
     7    3   37 1
     8    4    5 ar
     9    4    7 1
    10    5    6 ar
    11    5   38 1
    12    6   39 1
    13    7   17 1
    14    7    8 am
    15    8    9 2
    16    8   10 1
    17   10   15 ar
    18   10   11 ar
    19   11   12 ar
    20   11   40 1
    21   12   13 ar
    22   12   41 1
    23   13   14 ar
    24   13   42 1
    25   14   15 ar
    26   14   43 1
    27   15   16 1
    28   16   20 1
    29   16   17 1
    30   17   18 2
    31   18   19 1
    32   19   20 2
    33   20   21 1
    34   21   22 1
    35   22   23 1
    36   22   44 1
    37   22   45 1
    38   23   24 2
    39   23   25 am
    40   25   26 1
    41   25   46 1
    42   26   27 1
    43   26   47 1
    44   26   48 1
    45   27   32 ar
    46   27   28 ar
    47   28   29 ar
    48   28   49 1
    49   29   30 ar
    50   29   50 1
    51   30   31 ar
    52   30   33 1
    53   31   32 ar
    54   31   51 1
    55   32   52 1
    56   33   34 2
    57   33   53 1
@<TRIPOS>MOLECULE
ZINC32099629
   51    54     0     0     0
SMALL
USER_CHARGES
N-[4-[5-[(Z)-[1-(m-tolyl)-3,5-dioxo-pyrazolidin-4-ylidene]methyl]-2-furyl]phenyl]sulfonylacetamide
@<TRIPOS>ATOM
      1 C1         -3.3115   11.4873    0.0964 C.3       1 <0>        -0.1169
      2 C2         -3.2785    9.9807    0.0881 C.ar      1 <0>        -0.0558
      3 C3         -4.4612    9.2638    0.0953 C.ar      1 <0>        -0.1425
      4 C4         -4.4353    7.8814    0.0872 C.ar      1 <0>        -0.0770
      5 C5         -3.2273    7.2119    0.0662 C.ar      1 <0>        -0.1531
      6 C6         -2.0379    7.9287    0.0647 C.ar      1 <0>         0.1736
      7 C7         -2.0674    9.3175    0.0728 C.ar      1 <0>        -0.1646
      8 N1         -0.8131    7.2539    0.0493 N.am      1 <0>        -0.3671
      9 C8         -0.6749    5.9146    0.0404 C.2       1 <0>         0.5566
     10 O1         -1.5732    5.0933    0.0452 O.2       1 <0>        -0.4561
     11 C9          0.7697    5.6333    0.0246 C.2       1 <0>        -0.3123
     12 C10         1.3874    4.3886    0.0120 C.2       1 <0>         0.1443
     13 C11         0.6109    3.2200    0.0135 C.2       1 <0>        -0.0798
     14 C12         1.0964    1.9193    0.0019 C.2       1 <0>        -0.1043
     15 C13        -0.0126    1.0758    0.0080 C.2       1 <0>        -0.2211
     16 C14        -1.1330    1.8808    0.0169 C.2       1 <0>         0.1049
     17 O2         -0.7385    3.1653    0.0261 O.3       1 <0>        -0.0973
     18 C15        -2.5313    1.4098    0.0196 C.ar      1 <0>        -0.0186
     19 C16        -2.8109    0.0408    0.0070 C.ar      1 <0>        -0.1147
     20 C17        -4.1203   -0.3922    0.0155 C.ar      1 <0>        -0.0086
     21 C18        -5.1560    0.5256    0.0248 C.ar      1 <0>        -0.6324
     22 C19        -4.8867    1.8830    0.0315 C.ar      1 <0>        -0.0341
     23 C20        -3.5822    2.3306    0.0290 C.ar      1 <0>        -0.1136
     24 S1         -6.8258   -0.0369    0.0287 S.o2      1 <0>         2.6152
     25 O3         -6.8108   -1.3499    0.5718 O.2       1 <0>        -1.0182
     26 O4         -7.6059    1.0104    0.5889 O.2       1 <0>        -0.9963
     27 N2         -7.2966   -0.1840   -1.5522 N.2       1 <0>        -1.0782
     28 C21        -6.7046   -1.0951   -2.3496 C.2       1 <0>         0.5071
     29 O5         -5.8270   -1.8071   -1.9095 O.3       1 <0>        -0.6230
     30 C22        -7.1330   -1.2289   -3.7882 C.3       1 <0>        -0.1432
     31 C23         1.4195    6.9544    0.0316 C.2       1 <0>         0.5838
     32 O6          2.6167    7.1733    0.0271 O.2       1 <0>        -0.5102
     33 N3          0.4362    7.8743    0.0405 N.am      1 <0>        -0.5281
     34 H1         -4.3563   11.8311    0.1084 H         1 <0>         0.0691
     35 H2         -2.8099   11.8700   -0.8047 H         1 <0>         0.0707
     36 H3         -2.7924   11.8605    0.9915 H         1 <0>         0.0706
     37 H4         -5.4071    9.7849    0.1076 H         1 <0>         0.1260
     38 H5         -5.3606    7.3245    0.0928 H         1 <0>         0.1352
     39 H6         -3.2078    6.1321    0.0550 H         1 <0>         0.1578
     40 H7         -1.1442    9.8779    0.0676 H         1 <0>         0.1195
     41 H8          2.4852    4.3195    0.0008 H         1 <0>         0.1822
     42 H9          2.1338    1.6191   -0.0093 H         1 <0>         0.1646
     43 H10         0.0021   -0.0041    0.0020 H         1 <0>         0.1617
     44 H11        -2.0036   -0.6765   -0.0048 H         1 <0>         0.1297
     45 H12        -4.3379   -1.4500    0.0103 H         1 <0>         0.1508
     46 H13        -5.7000    2.5936    0.0392 H         1 <0>         0.1398
     47 H14        -3.3735    3.3902    0.0347 H         1 <0>         0.1388
     48 H15        -6.5410   -2.0178   -4.2752 H         1 <0>         0.0621
     49 H16        -6.9705   -0.2740   -4.3095 H         1 <0>         0.0714
     50 H17        -8.2001   -1.4926   -3.8300 H         1 <0>         0.0720
     51 H18         0.5051    8.9721    0.0415 H         1 <0>         0.4594
@<TRIPOS>BOND
     1    1    2 1
     2    1   34 1
     3    1   35 1
     4    1   36 1
     5    2    7 ar
     6    2    3 ar
     7    3    4 ar
     8    3   37 1
     9    4    5 ar
    10    4   38 1
    11    5    6 ar
    12    5   39 1
    13    6    7 ar
    14    6    8 1
    15    7   40 1
    16    8   33 1
    17    8    9 am
    18    9   10 2
    19    9   11 1
    20   11   12 2
    21   11   31 1
    22   12   13 1
    23   12   41 1
    24   13   17 1
    25   13   14 2
    26   14   15 1
    27   14   42 1
    28   15   16 2
    29   15   43 1
    30   16   17 1
    31   16   18 1
    32   18   23 ar
    33   18   19 ar
    34   19   20 ar
    35   19   44 1
    36   20   21 ar
    37   20   45 1
    38   21   22 ar
    39   21   24 1
    40   22   23 ar
    41   22   46 1
    42   23   47 1
    43   24   25 2
    44   24   26 2
    45   24   27 1
    46   27   28 2
    47   28   29 1
    48   28   30 1
    49   30   48 1
    50   30   49 1
    51   30   50 1
    52   31   32 2
    53   31   33 am
    54   33   51 1
@<TRIPOS>MOLECULE
ZINC39691950
   53    56     0     0     0
SMALL
USER_CHARGES

@<TRIPOS>ATOM
      1 C1         -0.0184    1.5028    0.0103 C.3       1 <0>        -0.1029
      2 C2          0.0021   -0.0041    0.0020 C.2       1 <0>        -0.0611
      3 C3          0.0054   -0.6995   -1.2071 C.2       1 <0>        -0.2130
      4 C4         -0.0088   -0.1684   -2.5901 C.2       1 <0>         0.5602
      5 O1         -0.0261    1.0316   -2.7984 O.2       1 <0>        -0.5118
      6 N1         -0.0016   -1.0471   -3.6113 N.am      1 <0>        -0.6321
      7 H1         -0.0103   -0.7159   -4.5230 H         1 <0>         0.4170
      8 C5          0.0181   -2.3845   -3.3912 C.2       1 <0>         0.3829
      9 N2          0.0311   -2.8859   -2.1861 N.2       1 <0>        -0.4616
     10 C6          0.0256   -2.1103   -1.1093 C.2       1 <0>         0.0391
     11 S1          0.0383   -2.4024    0.6415 S.3       1 <0>         0.1928
     12 C7          0.0233   -0.7033    1.1878 C.2       1 <0>        -0.1602
     13 C8          0.0295   -0.1991    2.5134 C.2       1 <0>         0.5519
     14 O2          0.0149    1.0101    2.7088 O.co2     1 <0>        -0.6548
     15 O3          0.0495   -0.9729    3.4629 O.co2     1 <0>        -0.6761
     16 C9          0.0248   -3.3200   -4.5726 C.3       1 <0>        -0.0695
     17 S2          0.0517   -5.0360   -3.9849 S.3       1 <0>         0.0928
     18 C10         0.0571   -5.9932   -5.4643 C.2       1 <0>         0.3458
     19 N3          0.0478   -5.3739   -6.6291 N.2       1 <0>        -0.5219
     20 C11         0.0831   -6.2380   -7.7961 C.3       1 <0>         0.1178
     21 H2         -0.8853   -6.6842   -8.0224 H         1 <0>         0.1206
     22 C12         1.2016   -7.2857   -7.4749 C.3       1 <0>        -0.1231
     23 H3          2.0217   -6.6962   -7.0652 H         1 <0>         0.1197
     24 C13         1.7145   -7.8681   -8.7229 C.2       1 <0>        -0.1177
     25 C14         1.6923   -7.0823   -9.8114 C.2       1 <0>        -0.0868
     26 S3          0.9078   -5.5202   -9.2683 S.3       1 <0>        -0.1552
     27 C15         2.2053   -7.4140  -11.1890 C.3       1 <0>        -0.0795
     28 C16         2.2395   -9.2796   -8.7785 C.3       1 <0>        -0.0955
     29 C17         0.7009   -8.1113   -6.3465 C.2       1 <0>         0.5589
     30 O4          0.8347   -9.3151   -6.2914 O.2       1 <0>        -0.4578
     31 N4          0.0768   -7.3771   -5.3721 N.am      1 <0>        -0.5719
     32 C18        -0.5683   -8.0518   -4.2430 C.3       1 <0>         0.1060
     33 C19        -2.0264   -8.3538   -4.5948 C.3       1 <0>         0.0416
     34 O5         -2.0721   -9.2918   -5.6718 O.3       1 <0>        -0.3817
     35 C20        -3.3954   -9.6436   -6.0804 C.3       1 <0>         0.0321
     36 H4          1.0042    1.8801    0.0026 H         1 <0>         0.0618
     37 H5         -0.5455    1.8639   -0.8728 H         1 <0>         0.0636
     38 H6         -0.5286    1.8543    0.9071 H         1 <0>         0.0977
     39 H7         -0.8707   -3.1552   -5.1717 H         1 <0>         0.1323
     40 H8          0.9091   -3.1305   -5.1812 H         1 <0>         0.1328
     41 H9          1.4067   -7.8702  -11.7740 H         1 <0>         0.0809
     42 H10         2.5405   -6.5012  -11.6814 H         1 <0>         0.0744
     43 H11         3.0398   -8.1106  -11.1080 H         1 <0>         0.0808
     44 H12         1.4240   -9.9614   -9.0197 H         1 <0>         0.0752
     45 H13         3.0111   -9.3504   -9.5452 H         1 <0>         0.0675
     46 H14         2.6633   -9.5480   -7.8107 H         1 <0>         0.0726
     47 H15        -0.0454   -8.9841   -4.0299 H         1 <0>         0.1079
     48 H16        -0.5325   -7.4063   -3.3654 H         1 <0>         0.1125
     49 H17        -2.5303   -8.7747   -3.7247 H         1 <0>         0.0721
     50 H18        -2.5263   -7.4325   -4.8938 H         1 <0>         0.0555
     51 H19        -3.3442  -10.3588   -6.9013 H         1 <0>         0.0851
     52 H20        -3.9278  -10.0913   -5.2412 H         1 <0>         0.0435
     53 H21        -3.9238   -8.7491   -6.4103 H         1 <0>         0.0390
@<TRIPOS>BOND
     1    1    2 1
     2    1   36 1
     3    1   37 1
     4    1   38 1
     5    2   12 2
     6    2    3 1
     7    3   10 2
     8    3    4 1
     9    4    5 2
    10    4    6 am
    11    6    7 1
    12    6    8 1
    13    8    9 2
    14    8   16 1
    15    9   10 1
    16   10   11 1
    17   11   12 1
    18   12   13 1
    19   13   14 2
    20   13   15 1
    21   16   17 1
    22   16   39 1
    23   16   40 1
    24   17   18 1
    25   18   31 1
    26   18   19 2
    27   19   20 1
    28   20   21 1
    29   20   26 1
    30   20   22 1
    31   22   23 1
    32   22   24 1
    33   22   29 1
    34   24   25 2
    35   24   28 1
    36   25   26 1
    37   25   27 1
    38   27   41 1
    39   27   42 1
    40   27   43 1
    41   28   44 1
    42   28   45 1
    43   28   46 1
    44   29   30 2
    45   29   31 am
    46   31   32 1
    47   32   33 1
    48   32   47 1
    49   32   48 1
    50   33   34 1
    51   33   49 1
    52   33   50 1
    53   34   35 1
    54   35   51 1
    55   35   52 1
    56   35   53 1
@<TRIPOS>MOLECULE
ZINC44393258
   54    57     0     0     0
SMALL
USER_CHARGES

@<TRIPOS>ATOM
      1 C1         -0.0671    1.6549   -0.1691 C.3       1 <0>        -0.1647
      2 C2         -0.0638    0.1380    0.0303 C.3       1 <0>         0.1622
      3 C3          0.5935   -0.1988    1.3702 C.3       1 <0>        -0.1533
      4 C4         -1.4817   -0.3725    0.0240 C.2       1 <0>         0.5268
      5 O1         -2.0752   -0.5272    1.0704 O.2       1 <0>        -0.4993
      6 N1         -2.0902   -0.6573   -1.1443 N.am      1 <0>        -0.6487
      7 C5         -3.3630   -1.2387   -1.1468 C.ar      1 <0>         0.1802
      8 C6         -4.2642   -0.9362   -2.1592 C.ar      1 <0>        -0.1697
      9 C7         -5.5197   -1.5117   -2.1587 C.ar      1 <0>        -0.0004
     10 C8         -5.8798   -2.3882   -1.1517 C.ar      1 <0>        -0.6365
     11 C9         -4.9849   -2.6911   -0.1419 C.ar      1 <0>        -0.0005
     12 C10        -3.7256   -2.1238   -0.1400 C.ar      1 <0>        -0.1440
     13 S1         -7.4825   -3.1203   -1.1548 S.o2      1 <0>         2.6369
     14 O2         -7.7669   -3.4807    0.1900 O.2       1 <0>        -1.0105
     15 O3         -8.3229   -2.2547   -1.9055 O.2       1 <0>        -1.0113
     16 N2         -7.3735   -4.5338   -2.0106 N.2       1 <0>        -1.0306
     17 C11        -8.4953   -5.3303   -2.1790 C.2       1 <0>         0.4021
     18 N3         -9.7187   -5.1233   -1.7402 N.2       1 <0>        -0.6661
     19 C12       -10.6873   -5.9873   -1.9881 C.2       1 <0>         0.1008
     20 C13       -10.3624   -7.0868   -2.7095 C.2       1 <0>        -0.3464
     21 S2         -8.6254   -6.7934   -3.0005 S.3       1 <0>         0.0088
     22 N4          0.6882   -0.4957   -1.0555 N.am      1 <0>        -0.3406
     23 C14         1.9861   -0.1806   -1.2241 C.2       1 <0>         0.4824
     24 O4          2.5254    0.6224   -0.4799 O.2       1 <0>        -0.5211
     25 C15         2.7193   -0.7865   -2.2684 C.2       1 <0>        -0.1771
     26 C16         2.0697   -1.6770   -3.0712 C.2       1 <0>        -0.0615
     27 C17         0.7044   -1.9404   -2.8114 C.2       1 <0>         0.1211
     28 N5          0.0930   -1.3404   -1.8174 N.2       1 <0>        -0.2355
     29 C18        -0.0374   -2.9030   -3.6623 C.ar      1 <0>        -0.0466
     30 C19        -1.3841   -3.1620   -3.4145 C.ar      1 <0>        -0.0863
     31 C20        -2.0693   -4.0584   -4.2092 C.ar      1 <0>        -0.1113
     32 C21        -1.4218   -4.6993   -5.2501 C.ar      1 <0>        -0.1004
     33 C22        -0.0851   -4.4464   -5.5003 C.ar      1 <0>        -0.1207
     34 C23         0.6083   -3.5472   -4.7159 C.ar      1 <0>        -0.1002
     35 H1          0.9585    2.0242   -0.1645 H         1 <0>         0.1003
     36 H2         -0.5354    1.8949   -1.1237 H         1 <0>         0.0651
     37 H3         -0.6266    2.1264    0.6388 H         1 <0>         0.0908
     38 H4          0.0340    0.2727    2.1781 H         1 <0>         0.0939
     39 H5          0.5958   -1.2795    1.5123 H         1 <0>         0.0650
     40 H6          1.6191    0.1704    1.3748 H         1 <0>         0.0945
     41 H7         -1.6459   -0.4591   -1.9835 H         1 <0>         0.4133
     42 H8         -3.9837   -0.2514   -2.9458 H         1 <0>         0.1285
     43 H9         -6.2211   -1.2766   -2.9456 H         1 <0>         0.1419
     44 H10        -5.2692   -3.3758    0.6434 H         1 <0>         0.1408
     45 H11        -3.0253   -2.3647    0.6461 H         1 <0>         0.1366
     46 H12       -11.6934   -5.8242   -1.6310 H         1 <0>         0.1453
     47 H13       -10.9837   -7.9119   -3.0250 H         1 <0>         0.1702
     48 H14         3.7615   -0.5516   -2.4263 H         1 <0>         0.1686
     49 H15         2.5839   -2.1680   -3.8841 H         1 <0>         0.1574
     50 H16        -1.8905   -2.6624   -2.6018 H         1 <0>         0.1322
     51 H17        -3.1129   -4.2602   -4.0179 H         1 <0>         0.1357
     52 H18        -1.9619   -5.4001   -5.8695 H         1 <0>         0.1282
     53 H19         0.4157   -4.9501   -6.3139 H         1 <0>         0.1274
     54 H20         1.6507   -3.3468   -4.9151 H         1 <0>         0.1260
@<TRIPOS>BOND
     1    1    2 1
     2    1   35 1
     3    1   36 1
     4    1   37 1
     5    2    3 1
     6    2    4 1
     7    2   22 1
     8    3   38 1
     9    3   39 1
    10    3   40 1
    11    4    5 2
    12    4    6 am
    13    6    7 1
    14    6   41 1
    15    7   12 ar
    16    7    8 ar
    17    8    9 ar
    18    8   42 1
    19    9   10 ar
    20    9   43 1
    21   10   11 ar
    22   10   13 1
    23   11   12 ar
    24   11   44 1
    25   12   45 1
    26   13   14 2
    27   13   15 2
    28   13   16 1
    29   16   17 1
    30   17   21 1
    31   17   18 2
    32   18   19 1
    33   19   20 2
    34   19   46 1
    35   20   21 1
    36   20   47 1
    37   22   28 1
    38   22   23 am
    39   23   24 2
    40   23   25 1
    41   25   26 2
    42   25   48 1
    43   26   27 1
    44   26   49 1
    45   27   28 2
    46   27   29 1
    47   29   34 ar
    48   29   30 ar
    49   30   31 ar
    50   30   50 1
    51   31   32 ar
    52   31   51 1
    53   32   33 ar
    54   32   52 1
    55   33   34 ar
    56   33   53 1
    57   34   54 1
@<TRIPOS>MOLECULE
ZINC59391688
   46    50     0     0     0
SMALL
USER_CHARGES

@<TRIPOS>ATOM
      1 C1          0.9221   -1.3669    1.0271 C.ar      1 <0>        -0.0982
      2 C2          1.3403   -1.4284   -0.2895 C.ar      1 <0>        -0.1111
      3 C3          2.6623   -1.6990   -0.5838 C.ar      1 <0>        -0.0892
      4 C4          3.5719   -1.9094    0.4441 C.ar      1 <0>         0.0897
      5 C5          3.1489   -1.8470    1.7652 C.ar      1 <0>        -0.0871
      6 C6          1.8255   -1.5759    2.0530 C.ar      1 <0>        -0.1084
      7 N1          4.9132   -2.1845    0.1489 N.am      1 <0>        -0.4861
      8 C7          5.3180   -3.4669   -0.0021 C.2       1 <0>         0.5575
      9 O1          4.5367   -4.3932    0.1138 O.2       1 <0>        -0.5004
     10 C8          6.7350   -3.7000   -0.3114 C.ar      1 <0>        -0.2035
     11 C9          7.2496   -4.9839   -0.4860 C.ar      1 <0>        -0.0383
     12 C10         8.5771   -5.1444   -0.7733 C.ar      1 <0>        -0.1449
     13 C11         9.4159   -4.0437   -0.8921 C.ar      1 <0>        -0.0697
     14 C12         8.9380   -2.7743   -0.7260 C.ar      1 <0>        -0.1104
     15 C13         7.5856   -2.5772   -0.4321 C.ar      1 <0>         0.1720
     16 N2          7.0700   -1.3377   -0.2601 N.2       1 <0>        -0.5149
     17 C14         5.8022   -1.1549    0.0100 C.2       1 <0>         0.3427
     18 S1          5.2154    0.4943    0.2107 S.3       1 <0>         0.2149
     19 C15         6.6053    1.4947   -0.2042 C.2       1 <0>        -0.0625
     20 C16         6.8573    2.0480   -1.4453 C.2       1 <0>        -0.1210
     21 C17         8.0457    2.7584   -1.3435 C.2       1 <0>        -0.1853
     22 C18         8.4882    2.6157   -0.0285 C.2       1 <0>         0.0715
     23 O2          7.5907    1.8500    0.6342 O.3       1 <0>        -0.0777
     24 C19         9.6478    3.1682    0.5093 C.2       1 <0>         0.0527
     25 C20         9.6058    3.8107    1.7537 C.2       1 <0>        -0.2095
     26 C21         8.3719    4.0701    2.4070 C.2       1 <0>         0.4810
     27 O3          7.2050    3.6994    1.8368 O.3       1 <0>        -0.6146
     28 N3          8.3800    4.6792    3.5818 N.2       1 <0>        -0.6632
     29 C22         9.5092    5.0582    4.1735 C.2       1 <0>         0.6660
     30 O4          9.4426    5.6142    5.2559 O.2       1 <0>        -0.5739
     31 N4         10.7200    4.8538    3.6291 N.am      1 <0>        -0.6946
     32 C23        10.8376    4.2356    2.4338 C.2       1 <0>         0.5655
     33 O5         11.9303    4.0407    1.9329 O.2       1 <0>        -0.5295
     34 H1         -0.1112   -1.1507    1.2548 H         1 <0>         0.1314
     35 H2          0.6323   -1.2650   -1.0886 H         1 <0>         0.1337
     36 H3          2.9882   -1.7473   -1.6123 H         1 <0>         0.1284
     37 H4          3.8539   -2.0105    2.5668 H         1 <0>         0.1293
     38 H5          1.4960   -1.5269    3.0803 H         1 <0>         0.1348
     39 H6          6.6047   -5.8454   -0.3948 H         1 <0>         0.1358
     40 H7          8.9777   -6.1381   -0.9089 H         1 <0>         0.1314
     41 H8         10.4612   -4.1933   -1.1187 H         1 <0>         0.1334
     42 H9          9.6018   -1.9277   -0.8209 H         1 <0>         0.1399
     43 H10         6.2447    1.9464   -2.3289 H         1 <0>         0.1563
     44 H11         8.5335    3.3142   -2.1306 H         1 <0>         0.1582
     45 H12        10.5795    3.1015   -0.0327 H         1 <0>         0.1656
     46 H13        11.5155    5.1487    4.0992 H         1 <0>         0.4025
@<TRIPOS>BOND
     1    1    6 ar
     2    1    2 ar
     3    1   34 1
     4    2    3 ar
     5    2   35 1
     6    3    4 ar
     7    3   36 1
     8    4    5 ar
     9    4    7 1
    10    5    6 ar
    11    5   37 1
    12    6   38 1
    13    7   17 1
    14    7    8 am
    15    8    9 2
    16    8   10 1
    17   10   15 ar
    18   10   11 ar
    19   11   12 ar
    20   11   39 1
    21   12   13 ar
    22   12   40 1
    23   13   14 ar
    24   13   41 1
    25   14   15 ar
    26   14   42 1
    27   15   16 1
    28   16   17 2
    29   17   18 1
    30   18   19 1
    31   19   23 1
    32   19   20 2
    33   20   21 1
    34   20   43 1
    35   21   22 2
    36   21   44 1
    37   22   23 1
    38   22   24 1
    39   24   25 2
    40   24   45 1
    41   25   32 1
    42   25   26 1
    43   26   27 1
    44   26   28 2
    45   28   29 1
    46   29   30 2
    47   29   31 am
    48   31   32 am
    49   31   46 1
    50   32   33 2
@<TRIPOS>MOLECULE
ZINC13280271
   53    56     0     0     0
SMALL
USER_CHARGES
3-isobutyl-4-oxo-2-[2-oxo-2-(3-oxo-4H-1,4-benzoxazin-6-yl)ethyl]sulfanyl-quinazoline-7-carboxylic acid
@<TRIPOS>ATOM
      1 C1         -0.0187    1.5258    0.0104 C.3       1 <0>        -0.1422
      2 C2          0.0021   -0.0041    0.0020 C.3       1 <0>        -0.1117
      3 C3          0.7421   -0.5109    1.2415 C.3       1 <0>        -0.1541
      4 C4          0.7182   -0.4975   -1.2568 C.3       1 <0>         0.0940
      5 N1          0.6341   -1.9585   -1.3255 N.am      1 <0>        -0.5276
      6 C5         -0.4080   -2.5413   -1.9618 C.2       1 <0>         0.5570
      7 O1         -1.2828   -1.8738   -2.4817 O.2       1 <0>        -0.5142
      8 C6         -0.4450   -4.0119   -2.0027 C.ar      1 <0>        -0.1955
      9 C7         -1.4793   -4.7010   -2.6351 C.ar      1 <0>        -0.0633
     10 C8         -1.4777   -6.0662   -2.6504 C.ar      1 <0>        -0.0866
     11 C9         -0.4439   -6.7851   -2.0362 C.ar      1 <0>        -0.0666
     12 C10         0.5964   -6.1192   -1.4005 C.ar      1 <0>        -0.0729
     13 C11         0.6052   -4.7216   -1.3780 C.ar      1 <0>         0.1383
     14 N2          1.5983   -4.0309   -0.7700 N.2       1 <0>        -0.5132
     15 C12         1.6110   -2.7208   -0.7518 C.2       1 <0>         0.3408
     16 S1          2.9472   -1.9049    0.0564 S.3       1 <0>         0.0452
     17 C13         3.9031   -3.3391    0.6091 C.3       1 <0>        -0.1670
     18 C14         5.1303   -2.8705    1.3478 C.2       1 <0>         0.4205
     19 O2          5.3381   -1.6836    1.4869 O.2       1 <0>        -0.4366
     20 C15         6.0745   -3.8510    1.8992 C.ar      1 <0>        -0.1579
     21 C16         5.8333   -5.2216    1.7446 C.ar      1 <0>        -0.0517
     22 C17         6.7212   -6.1410    2.2576 C.ar      1 <0>        -0.1158
     23 C18         7.8523   -5.7120    2.9378 C.ar      1 <0>         0.1147
     24 C19         8.0971   -4.3457    3.1012 C.ar      1 <0>         0.0761
     25 C20         7.2157   -3.4173    2.5861 C.ar      1 <0>        -0.0592
     26 N3          9.2456   -3.9334    3.7931 N.am      1 <0>        -0.6591
     27 C21        10.2371   -4.8261    4.0051 C.2       1 <0>         0.4914
     28 O3         11.2266   -4.5010    4.6268 O.2       1 <0>        -0.5084
     29 C22        10.1084   -6.2281    3.4663 C.3       1 <0>         0.0493
     30 O4          8.7312   -6.6121    3.4495 O.3       1 <0>        -0.2962
     31 C23        -0.4605   -8.2643   -2.0644 C.2       1 <0>         0.4880
     32 O5          0.4332   -8.8918   -1.5331 O.co2     1 <0>        -0.6215
     33 H1          1.0039    1.9031    0.0027 H         1 <0>         0.0593
     34 H2         -0.5459    1.8868   -0.8726 H         1 <0>         0.0579
     35 H3         -0.5289    1.8773    0.9072 H         1 <0>         0.0615
     36 H4         -1.0205   -0.3814    0.0098 H         1 <0>         0.0778
     37 H5          1.7647   -0.1336    1.2338 H         1 <0>         0.0707
     38 H6          0.2319   -0.1594    2.1383 H         1 <0>         0.0590
     39 H7          0.7568   -1.6008    1.2356 H         1 <0>         0.0562
     40 H8          0.2444   -0.0644   -2.1377 H         1 <0>         0.1027
     41 H9          1.7648   -0.1951   -1.2215 H         1 <0>         0.0955
     42 H10        -2.2805   -4.1556   -3.1117 H         1 <0>         0.1334
     43 H11        -2.2804   -6.5968   -3.1410 H         1 <0>         0.1430
     44 H12         1.3913   -6.6766   -0.9275 H         1 <0>         0.1449
     45 H13         3.3414   -3.8996    1.2177 H         1 <0>         0.1231
     46 H14         4.2034   -3.9307   -0.2557 H         1 <0>         0.1379
     47 H15         4.9518   -5.5581    1.2191 H         1 <0>         0.1531
     48 H16         6.5350   -7.1976    2.1336 H         1 <0>         0.1533
     49 H17         7.4049   -2.3615    2.7117 H         1 <0>         0.1465
     50 H18         9.3267   -3.0216    4.1140 H         1 <0>         0.4185
     51 H19        10.6685   -6.9139    4.1019 H         1 <0>         0.1500
     52 H20        10.5078   -6.2654    2.4528 H         1 <0>         0.1051
     53 O6         -1.4668   -8.9148   -2.6794 O.co2     1 <0>        -0.7435
@<TRIPOS>BOND
     1    1    2 1
     2    1   33 1
     3    1   34 1
     4    1   35 1
     5    2    3 1
     6    2    4 1
     7    2   36 1
     8    3   37 1
     9    3   38 1
    10    3   39 1
    11    4    5 1
    12    4   40 1
    13    4   41 1
    14    5   15 1
    15    5    6 am
    16    6    7 2
    17    6    8 1
    18    8   13 ar
    19    8    9 ar
    20    9   10 ar
    21    9   42 1
    22   10   11 ar
    23   10   43 1
    24   11   12 ar
    25   11   31 1
    26   12   13 ar
    27   12   44 1
    28   13   14 1
    29   14   15 2
    30   15   16 1
    31   16   17 1
    32   17   18 1
    33   17   45 1
    34   17   46 1
    35   18   19 2
    36   18   20 1
    37   20   25 ar
    38   20   21 ar
    39   21   22 ar
    40   21   47 1
    41   22   23 ar
    42   22   48 1
    43   23   30 1
    44   23   24 ar
    45   24   25 ar
    46   24   26 1
    47   25   49 1
    48   26   27 am
    49   26   50 1
    50   27   28 2
    51   27   29 1
    52   29   30 1
    53   29   51 1
    54   29   52 1
    55   31   32 2
    56   31   53 1
@<TRIPOS>MOLECULE
ZINC23989395
   49    53     0     0     0
SMALL
USER_CHARGES
2-[[4-(2-furylmethyl)-5-phenyl-1,2,4-triazol-3-yl]sulfanylmethyl]-5-methyl-4-oxo-3H-thieno[5,4-d]pyrimidine-6-carboxylic acid
@<TRIPOS>ATOM
      1 C1          3.0560    3.7148  -10.1422 C.3       1 <0>        -0.1041
      2 C2          2.1136    3.1962   -9.0868 C.2       1 <0>        -0.0546
      3 C3          2.4844    3.2273   -7.7411 C.2       1 <0>        -0.2130
      4 C4          3.7390    3.7194   -7.1272 C.2       1 <0>         0.5415
      5 O1          4.6322    4.1807   -7.8150 O.2       1 <0>        -0.4938
      6 N1          3.8647    3.6484   -5.7875 N.2       1 <0>        -0.5779
      7 C5          2.8792    3.1322   -5.0127 C.2       1 <0>         0.4311
      8 N2          1.7612    2.6903   -5.5214 N.pl3     1 <0>        -0.5303
      9 C6          1.5324    2.7184   -6.8280 C.2       1 <0>         0.0076
     10 S1          0.1852    2.2280   -7.8745 S.3       1 <0>         0.1717
     11 C7          0.8953    2.6948   -9.4441 C.2       1 <0>        -0.1482
     12 C8          0.3149    2.5708  -10.7829 C.2       1 <0>         0.5288
     13 O2          0.9436    2.9436  -11.7551 O.co2     1 <0>        -0.5951
     14 O3         -0.9169    2.0430  -10.9379 O.co2     1 <0>        -0.7414
     15 C9          3.0778    3.0726   -3.5200 C.3       1 <0>        -0.0649
     16 S2          1.6104    2.3504   -2.7446 S.3       1 <0>         0.0096
     17 C10         2.1022    2.4002   -1.0533 C.2       1 <0>         0.1698
     18 N3          3.2429    2.8567   -0.5862 N.2       1 <0>        -0.2729
     19 N4          3.2724    2.7438    0.6936 N.2       1 <0>        -0.2594
     20 C11         2.1506    2.2142    1.1227 C.2       1 <0>         0.2351
     21 N5          1.3692    1.9722    0.0164 N.pl3     1 <0>        -0.4543
     22 C12         0.0278    1.3838   -0.0082 C.3       1 <0>         0.1722
     23 C13         0.1306   -0.0888   -0.3118 C.2       1 <0>        -0.0611
     24 C14         0.3764   -1.0614    0.5843 C.2       1 <0>        -0.1796
     25 C15         0.3843   -2.2824   -0.1284 C.2       1 <0>        -0.2187
     26 C16         0.1511   -1.9821   -1.4187 C.2       1 <0>        -0.0097
     27 O4         -0.0018   -0.6520   -1.5238 O.3       1 <0>        -0.1593
     28 C17         1.7952    1.9284    2.5290 C.ar      1 <0>        -0.0165
     29 C18         0.7455    1.0568    2.8235 C.ar      1 <0>        -0.1331
     30 C19         0.4219    0.7911    4.1380 C.ar      1 <0>        -0.1140
     31 C20         1.1287    1.3942    5.1632 C.ar      1 <0>        -0.1033
     32 C21         2.1671    2.2629    4.8781 C.ar      1 <0>        -0.1135
     33 C22         2.5042    2.5335    3.5679 C.ar      1 <0>        -0.0721
     34 H1          3.9793    4.0745   -9.6645 H         1 <0>         0.0843
     35 H2          2.5778    4.5429  -10.6858 H         1 <0>         0.0723
     36 H3          3.2988    2.9055  -10.8466 H         1 <0>         0.0723
     37 H4          3.9565    2.4516   -3.2915 H         1 <0>         0.1503
     38 H5          3.2358    4.0890   -3.1302 H         1 <0>         0.1510
     39 H6         -0.4519    1.5235    0.9718 H         1 <0>         0.1431
     40 H7         -0.5748    1.8771   -0.7850 H         1 <0>         0.1222
     41 H8          0.5349   -0.9342    1.6450 H         1 <0>         0.1576
     42 H9          0.5502   -3.2670    0.2835 H         1 <0>         0.1540
     43 H10         0.0958   -2.6905   -2.2320 H         1 <0>         0.2105
     44 H11         0.1902    0.5889    2.0241 H         1 <0>         0.1374
     45 H12        -0.3877    0.1140    4.3672 H         1 <0>         0.1311
     46 H13         0.8688    1.1857    6.1905 H         1 <0>         0.1289
     47 H14         2.7149    2.7304    5.6829 H         1 <0>         0.1329
     48 H15         3.3150    3.2118    3.3467 H         1 <0>         0.1389
     49 H16         0.9807    2.2819   -4.8626 H         1 <0>         0.4364
@<TRIPOS>BOND
     1    1    2 1
     2    1   34 1
     3    1   35 1
     4    1   36 1
     5    2   11 2
     6    2    3 1
     7    3    9 2
     8    3    4 1
     9    4    5 2
    10    4    6 1
    11    6    7 2
    12    7    8 1
    13    7   15 1
    14    8    9 1
    15    8   49 1
    16    9   10 1
    17   10   11 1
    18   11   12 1
    19   12   13 2
    20   12   14 1
    21   15   16 1
    22   15   37 1
    23   15   38 1
    24   16   17 1
    25   17   21 1
    26   17   18 2
    27   18   19 1
    28   19   20 2
    29   20   21 1
    30   20   28 1
    31   21   22 1
    32   22   23 1
    33   22   39 1
    34   22   40 1
    35   23   27 1
    36   23   24 2
    37   24   25 1
    38   24   41 1
    39   25   26 2
    40   25   42 1
    41   26   27 1
    42   26   43 1
    43   28   33 ar
    44   28   29 ar
    45   29   30 ar
    46   29   44 1
    47   30   31 ar
    48   30   45 1
    49   31   32 ar
    50   31   46 1
    51   32   33 ar
    52   32   47 1
    53   33   48 1
@<TRIPOS>MOLECULE
ZINC38740364
   60    63     0     0     0
SMALL
USER_CHARGES

@<TRIPOS>ATOM
      1 C1         -0.0330    1.5493    0.0163 C.3       1 <0>        -0.1697
      2 C2         -0.0056    0.0196    0.0038 C.3       1 <0>         0.0929
      3 N1         -1.3778   -0.4934    0.0136 N.pl3     1 <0>        -0.4773
      4 C3         -1.9676   -0.7219    1.1952 C.2       1 <0>         0.2479
      5 C4         -3.2559   -1.2037    1.2948 C.2       1 <0>        -0.3286
      6 C5         -4.0080   -1.4760    0.0586 C.2       1 <0>         0.4081
      7 O1         -5.1493   -1.9020    0.0895 O.2       1 <0>        -0.4125
      8 C6         -3.3208   -1.2105   -1.2173 C.ar      1 <0>        -0.2253
      9 C7         -2.0056   -0.7139   -1.1902 C.ar      1 <0>         0.3806
     10 N2         -1.3748   -0.4657   -2.3316 N.ar      1 <0>        -0.5209
     11 C8         -1.9492   -0.6672   -3.4987 C.ar      1 <0>         0.1882
     12 C9         -3.2446   -1.1498   -3.5976 C.ar      1 <0>        -0.2075
     13 C10        -3.9501   -1.4375   -2.4428 C.ar      1 <0>         0.0202
     14 C11        -1.1794   -0.3652   -4.7585 C.3       1 <0>        -0.1059
     15 C12        -3.8672   -1.4417    2.6117 C.2       1 <0>         0.5900
     16 O2         -3.2051   -1.3058    3.6231 O.2       1 <0>        -0.5413
     17 N3         -5.1607   -1.8103    2.6974 N.am      1 <0>        -0.6247
     18 C13        -5.7700   -1.9286    3.9444 C.2       1 <0>         0.3404
     19 C14        -5.1854   -1.6987    5.1516 C.2       1 <0>        -0.2849
     20 C15        -6.1430   -1.9315    6.1437 C.2       1 <0>         0.0885
     21 N4         -7.2614   -2.2875    5.5662 N.2       1 <0>        -0.2479
     22 N5         -7.0627   -2.2902    4.1796 N.pl3     1 <0>        -0.3140
     23 C16        -8.0155   -2.6088    3.2135 C.ar      1 <0>         0.5688
     24 N6         -7.6743   -2.5748    1.9353 N.ar      1 <0>        -0.6266
     25 C17        -8.5578   -2.8732    0.9908 C.ar      1 <0>         0.4632
     26 O3         -8.2043   -2.8376   -0.3170 O.3       1 <0>        -0.6798
     27 C18        -9.8549   -3.2242    1.3635 C.ar      1 <0>        -0.3443
     28 C19       -10.1703   -3.2475    2.7090 C.ar      1 <0>         0.1828
     29 N7         -9.2367   -2.9429    3.5979 N.ar      1 <0>        -0.5906
     30 C20       -11.5591   -3.6203    3.1598 C.3       1 <0>        -0.0898
     31 C21        -5.9233   -1.7957    7.6284 C.3       1 <0>         0.0179
     32 C22        -5.8861   -0.3132    8.0049 C.3       1 <0>        -0.1348
     33 C23        -7.0658   -2.4838    8.3781 C.3       1 <0>        -0.1353
     34 C24        -4.5948   -2.4521    8.0095 C.3       1 <0>        -0.1353
     35 H1          0.9879    1.9311    0.0090 H         1 <0>         0.0771
     36 H2         -0.5622    1.9105   -0.8656 H         1 <0>         0.0645
     37 H3         -0.5442    1.8963    0.9143 H         1 <0>         0.0619
     38 H4          0.5056   -0.3273   -0.8942 H         1 <0>         0.1068
     39 H5          0.5236   -0.3415    0.8856 H         1 <0>         0.0947
     40 H6         -1.4145   -0.5221    2.1010 H         1 <0>         0.1842
     41 H7         -3.6957   -1.3075   -4.5661 H         1 <0>         0.1456
     42 H8         -4.9610   -1.8150   -2.4878 H         1 <0>         0.1603
     43 H9         -0.6340   -1.2549   -5.0732 H         1 <0>         0.0835
     44 H10        -1.8725   -0.0667   -5.5451 H         1 <0>         0.0810
     45 H11        -0.4749    0.4446   -4.5685 H         1 <0>         0.0791
     46 H12        -5.6674   -1.9933    1.8908 H         1 <0>         0.4472
     47 H13        -4.1631   -1.3910    5.3145 H         1 <0>         0.1747
     48 H14       -10.5960   -3.4718    0.6180 H         1 <0>         0.1181
     49 H15       -11.6132   -4.6975    3.3172 H         1 <0>         0.0692
     50 H16       -11.7890   -3.1049    4.0923 H         1 <0>         0.0694
     51 H17       -12.2797   -3.3281    2.3959 H         1 <0>         0.0673
     52 H18        -6.8325    0.1545    7.7333 H         1 <0>         0.0559
     53 H19        -5.7272   -0.2149    9.0787 H         1 <0>         0.0589
     54 H20        -5.0721    0.1770    7.4708 H         1 <0>         0.0596
     55 H21        -7.0922   -3.5399    8.1099 H         1 <0>         0.0566
     56 H22        -6.9068   -2.3855    9.4520 H         1 <0>         0.0530
     57 H23        -8.0122   -2.0161    8.1066 H         1 <0>         0.0627
     58 H24        -3.7809   -1.9619    7.4754 H         1 <0>         0.0625
     59 H25        -4.4359   -2.3538    9.0834 H         1 <0>         0.0578
     60 H26        -4.6213   -3.5082    7.7413 H         1 <0>         0.0559
@<TRIPOS>BOND
     1    1    2 1
     2    1   35 1
     3    1   36 1
     4    1   37 1
     5    2    3 1
     6    2   38 1
     7    2   39 1
     8    3    9 1
     9    3    4 1
    10    4    5 2
    11    4   40 1
    12    5    6 1
    13    5   15 1
    14    6    7 2
    15    6    8 1
    16    8   13 ar
    17    8    9 ar
    18    9   10 ar
    19   10   11 ar
    20   11   12 ar
    21   11   14 1
    22   12   13 ar
    23   12   41 1
    24   13   42 1
    25   14   43 1
    26   14   44 1
    27   14   45 1
    28   15   16 2
    29   15   17 am
    30   17   18 1
    31   17   46 1
    32   18   22 1
    33   18   19 2
    34   19   20 1
    35   19   47 1
    36   20   21 2
    37   20   31 1
    38   21   22 1
    39   22   23 1
    40   23   29 ar
    41   23   24 ar
    42   24   25 ar
    43   25   26 1
    44   25   27 ar
    45   27   28 ar
    46   27   48 1
    47   28   29 ar
    48   28   30 1
    49   30   49 1
    50   30   50 1
    51   30   51 1
    52   31   32 1
    53   31   33 1
    54   31   34 1
    55   32   52 1
    56   32   53 1
    57   32   54 1
    58   33   55 1
    59   33   56 1
    60   33   57 1
    61   34   58 1
    62   34   59 1
    63   34   60 1
@<TRIPOS>MOLECULE
ZINC39733496
   62    66     0     0     0
SMALL
USER_CHARGES

@<TRIPOS>ATOM
      1 C1         -0.0187    1.5258    0.0104 C.3       1 <0>        -0.1533
      2 C2          0.0021   -0.0041    0.0020 C.3       1 <0>         0.0611
      3 O1         -1.3386   -0.4987    0.0122 O.3       1 <0>        -0.3520
      4 C3         -1.4964   -1.8317    0.0065 C.2       1 <0>         0.4731
      5 O2         -0.5283   -2.5546   -0.0066 O.2       1 <0>        -0.4770
      6 C4         -2.8809   -2.4266    0.0165 C.3       1 <0>        -0.0604
      7 H1         -3.4236   -2.0788   -0.8625 H         1 <0>         0.1292
      8 C5         -3.6249   -1.9542    1.2896 C.3       1 <0>         0.1759
      9 H2         -3.1773   -1.0500    1.7022 H         1 <0>         0.1335
     10 S1         -3.3032   -3.4183    2.3619 S.3       1 <0>        -0.0739
     11 C6         -2.9652   -4.5962    1.0769 C.2       1 <0>        -0.0874
     12 C7         -2.7711   -3.9333   -0.0354 C.2       1 <0>        -0.1496
     13 C8         -2.4010   -4.6430   -1.3439 C.3       1 <0>        -0.0510
     14 C9         -1.0432   -5.3137   -1.1429 C.3       1 <0>        -0.1213
     15 C10        -1.1686   -6.6401   -0.4333 C.3       1 <0>        -0.1166
     16 C11        -1.4968   -6.5693    1.0410 C.3       1 <0>        -0.1116
     17 C12        -2.9437   -6.1034    1.2392 C.3       1 <0>        -0.0470
     18 N1         -5.0570   -1.7734    1.0396 N.am      1 <0>        -0.7176
     19 C13        -5.9599   -2.2457    1.9217 C.2       1 <0>         0.5341
     20 O3         -5.5868   -2.8203    2.9225 O.2       1 <0>        -0.4730
     21 C14        -7.4331   -2.0598    1.6646 C.3       1 <0>        -0.1028
     22 H3         -7.5980   -1.1011    1.1729 H         1 <0>         0.1168
     23 C15        -7.9402   -3.1884    0.7646 C.3       1 <0>        -0.1410
     24 S2         -8.3309   -2.0933    3.2405 S.3       1 <0>         0.0443
     25 C16        -9.9934   -1.7196    2.7920 C.2       1 <0>         0.0646
     26 N2        -10.4393   -1.4840    1.5805 N.2       1 <0>        -0.2479
     27 N3        -11.7028   -1.2454    1.6077 N.2       1 <0>        -0.3381
     28 C17       -12.1451   -1.3147    2.8495 C.2       1 <0>         0.4460
     29 N4        -11.0606   -1.6267    3.6395 N.pl3     1 <0>        -0.4257
     30 C18       -11.2093   -1.7743    4.9933 C.2       1 <0>         0.0989
     31 C19       -12.4336   -1.6125    5.5376 C.2       1 <0>        -0.1868
     32 C20       -13.5272   -1.2956    4.6989 C.2       1 <0>         0.4680
     33 O4        -14.7594   -1.1305    5.2361 O.3       1 <0>        -0.6695
     34 N5        -13.3563   -1.1512    3.4022 N.2       1 <0>        -0.5713
     35 C21       -12.3731   -1.8195    7.0351 C.3       1 <0>        -0.0563
     36 C22       -11.0367   -2.5521    7.2848 C.3       1 <0>        -0.1151
     37 C23       -10.1972   -2.1066    6.0677 C.3       1 <0>        -0.0724
     38 H4          1.0039    1.9031    0.0027 H         1 <0>         0.0801
     39 H5         -0.5459    1.8868   -0.8726 H         1 <0>         0.0673
     40 H6         -0.5289    1.8773    0.9072 H         1 <0>         0.0683
     41 H7          0.5123   -0.3556   -0.8948 H         1 <0>         0.0682
     42 H8          0.5293   -0.3651    0.8851 H         1 <0>         0.0696
     43 H9         -3.1530   -5.3956   -1.5812 H         1 <0>         0.0749
     44 H10        -2.3374   -3.9157   -2.1532 H         1 <0>         0.0649
     45 H11        -0.5796   -5.4746   -2.1162 H         1 <0>         0.0593
     46 H12        -0.4061   -4.6547   -0.5530 H         1 <0>         0.0849
     47 H13        -1.9481   -7.2191   -0.9285 H         1 <0>         0.0556
     48 H14        -0.2273   -7.1778   -0.5473 H         1 <0>         0.0567
     49 H15        -1.3707   -7.5562    1.4862 H         1 <0>         0.0689
     50 H16        -0.8190   -5.8681    1.5279 H         1 <0>         0.0673
     51 H17        -3.2800   -6.3725    2.2405 H         1 <0>         0.0795
     52 H18        -3.5916   -6.5650    0.4940 H         1 <0>         0.0854
     53 H19        -5.3554   -1.3139    0.2392 H         1 <0>         0.4096
     54 H20        -7.7754   -4.1471    1.2564 H         1 <0>         0.0695
     55 H21        -9.0058   -3.0539    0.5787 H         1 <0>         0.0902
     56 H22        -7.4007   -3.1683   -0.1823 H         1 <0>         0.0637
     57 H23       -12.3805   -0.8591    7.5507 H         1 <0>         0.0781
     58 H24       -13.2097   -2.4345    7.3665 H         1 <0>         0.0807
     59 H25       -10.5787   -2.2202    8.2166 H         1 <0>         0.0825
     60 H26       -11.1791   -3.6327    7.2855 H         1 <0>         0.0756
     61 H27        -9.5478   -2.9177    5.7383 H         1 <0>         0.0834
     62 H28        -9.6066   -1.2251    6.3172 H         1 <0>         0.0890
@<TRIPOS>BOND
     1    1    2 1
     2    1   38 1
     3    1   39 1
     4    1   40 1
     5    2    3 1
     6    2   41 1
     7    2   42 1
     8    3    4 1
     9    4    5 2
    10    4    6 1
    11    6    7 1
    12    6   12 1
    13    6    8 1
    14    8    9 1
    15    8   10 1
    16    8   18 1
    17   10   11 1
    18   11   17 1
    19   11   12 2
    20   12   13 1
    21   13   14 1
    22   13   43 1
    23   13   44 1
    24   14   15 1
    25   14   45 1
    26   14   46 1
    27   15   16 1
    28   15   47 1
    29   15   48 1
    30   16   17 1
    31   16   49 1
    32   16   50 1
    33   17   51 1
    34   17   52 1
    35   18   19 am
    36   18   53 1
    37   19   20 2
    38   19   21 1
    39   21   22 1
    40   21   23 1
    41   21   24 1
    42   23   54 1
    43   23   55 1
    44   23   56 1
    45   24   25 1
    46   25   29 1
    47   25   26 2
    48   26   27 1
    49   27   28 2
    50   28   34 1
    51   28   29 1
    52   29   30 1
    53   30   37 1
    54   30   31 2
    55   31   32 1
    56   31   35 1
    57   32   33 1
    58   32   34 2
    59   35   36 1
    60   35   57 1
    61   35   58 1
    62   36   37 1
    63   36   59 1
    64   36   60 1
    65   37   61 1
    66   37   62 1
@<TRIPOS>MOLECULE
ZINC49597303
   52    56     0     0     0
SMALL
USER_CHARGES

@<TRIPOS>ATOM
      1 C1         -0.0187    1.5258    0.0104 C.3       1 <0>        -0.1585
      2 C2          0.0021   -0.0041    0.0020 C.3       1 <0>        -0.1149
      3 C3          0.7182   -0.4975   -1.2568 C.3       1 <0>         0.1704
      4 C4          2.1440    0.0158   -1.2950 C.2       1 <0>         0.5462
      5 O1          3.0253   -0.2102   -0.4938 O.2       1 <0>        -0.4621
      6 N1          2.2283    0.7749   -2.4054 N.am      1 <0>        -0.5531
      7 C5          1.0661    0.8121   -3.0671 C.2       1 <0>         0.7147
      8 O2          0.8955    1.4317   -4.0987 O.2       1 <0>        -0.5400
      9 N2          0.1074    0.0868   -2.4633 N.am      1 <0>        -0.7200
     10 C6          3.4424    1.4736   -2.8344 C.3       1 <0>         0.1575
     11 C7          4.2502    0.5720   -3.7320 C.2       1 <0>         0.4147
     12 O3          5.4160    1.0061   -4.2500 O.3       1 <0>        -0.6498
     13 N3          3.8219   -0.6261   -4.0068 N.2       1 <0>        -0.5929
     14 C8          4.5533   -1.4424   -4.8194 C.2       1 <0>         0.3959
     15 N4          5.6999   -1.2058   -5.4074 N.2       1 <0>        -0.3373
     16 N5          6.3089   -2.1655   -6.2097 N.pl3     1 <0>        -0.3068
     17 C9          7.4608   -2.3026   -6.9696 C.2       1 <0>         0.0176
     18 C10         7.4450   -3.5427   -7.5199 C.2       1 <0>         0.0311
     19 N6          6.3176   -4.1636   -7.1170 N.2       1 <0>        -0.4363
     20 C11         5.6472   -3.3574   -6.3468 C.2       1 <0>         0.1372
     21 S1          4.1975   -3.1105   -5.3482 S.3       1 <0>         0.0362
     22 C12         8.4852   -4.1150   -8.4092 C.ar      1 <0>         0.0213
     23 C13         9.6098   -3.3630   -8.7445 C.ar      1 <0>        -0.1150
     24 C14        10.5743   -3.9005   -9.5723 C.ar      1 <0>        -0.1181
     25 C15        10.4266   -5.1831  -10.0690 C.ar      1 <0>        -0.1311
     26 C16         9.3123   -5.9339   -9.7399 C.ar      1 <0>        -0.1206
     27 C17         8.3444   -5.4089   -8.9079 C.ar      1 <0>        -0.0989
     28 C18         0.6911   -2.0027   -1.3247 C.ar      1 <0>        -0.0947
     29 C19         0.6638   -2.7468   -0.1600 C.ar      1 <0>        -0.0964
     30 C20         0.6389   -4.1275   -0.2223 C.ar      1 <0>        -0.1244
     31 C21         0.6410   -4.7641   -1.4493 C.ar      1 <0>        -0.1101
     32 C22         0.6674   -4.0201   -2.6140 C.ar      1 <0>        -0.1157
     33 C23         0.6879   -2.6393   -2.5517 C.ar      1 <0>        -0.0829
     34 H1          1.0039    1.9031    0.0027 H         1 <0>         0.0538
     35 H2         -0.5459    1.8868   -0.8726 H         1 <0>         0.0623
     36 H3         -0.5289    1.8773    0.9072 H         1 <0>         0.0660
     37 H4          0.5293   -0.3651    0.8851 H         1 <0>         0.0896
     38 H5         -1.0205   -0.3814    0.0098 H         1 <0>         0.0865
     39 H6         -0.8075   -0.0291   -2.7638 H         1 <0>         0.4364
     40 H7          3.1683    2.3773   -3.3788 H         1 <0>         0.1172
     41 H8          4.0354    1.7419   -1.9601 H         1 <0>         0.1145
     42 H9          8.2310   -1.5568   -7.1001 H         1 <0>         0.1746
     43 H10         9.7259   -2.3614   -8.3576 H         1 <0>         0.1234
     44 H11        11.4459   -3.3186   -9.8331 H         1 <0>         0.1213
     45 H12        11.1839   -5.5998  -10.7165 H         1 <0>         0.1177
     46 H13         9.2020   -6.9346  -10.1308 H         1 <0>         0.1204
     47 H14         7.4774   -5.9978   -8.6474 H         1 <0>         0.1300
     48 H15         0.6622   -2.2493    0.7986 H         1 <0>         0.1263
     49 H16         0.6183   -4.7088    0.6877 H         1 <0>         0.1231
     50 H17         0.6223   -5.8429   -1.4979 H         1 <0>         0.1218
     51 H18         0.6693   -4.5175   -3.5726 H         1 <0>         0.1253
     52 H19         0.7048   -2.0579   -3.4617 H         1 <0>         0.1267
@<TRIPOS>BOND
     1    1    2 1
     2    1   34 1
     3    1   35 1
     4    1   36 1
     5    2    3 1
     6    2   37 1
     7    2   38 1
     8    3    9 1
     9    3    4 1
    10    3   28 1
    11    4    5 2
    12    4    6 am
    13    6    7 am
    14    6   10 1
    15    7    8 2
    16    7    9 am
    17    9   39 1
    18   10   11 1
    19   10   40 1
    20   10   41 1
    21   11   12 1
    22   11   13 2
    23   13   14 1
    24   14   21 1
    25   14   15 2
    26   15   16 1
    27   16   20 1
    28   16   17 1
    29   17   18 2
    30   17   42 1
    31   18   19 1
    32   18   22 1
    33   19   20 2
    34   20   21 1
    35   22   27 ar
    36   22   23 ar
    37   23   24 ar
    38   23   43 1
    39   24   25 ar
    40   24   44 1
    41   25   26 ar
    42   25   45 1
    43   26   27 ar
    44   26   46 1
    45   27   47 1
    46   28   33 ar
    47   28   29 ar
    48   29   30 ar
    49   29   48 1
    50   30   31 ar
    51   30   49 1
    52   31   32 ar
    53   31   50 1
    54   32   33 ar
    55   32   51 1
    56   33   52 1
@<TRIPOS>MOLECULE
ZINC13199971
   49    52     0     0     0
SMALL
USER_CHARGES
2-[(1R)-2-(1,3-benzodioxol-5-ylmethylamino)-1-methyl-2-oxo-ethyl]sulfanyl-3-methyl-4-oxo-quinazoline-7-carboxylic acid
@<TRIPOS>ATOM
      1 C1          8.8092   -0.4358   -0.3160 C.3       1 <0>        -0.1461
      2 C2          8.3264   -1.6645    0.4573 C.3       1 <0>        -0.1076
      3 H1          7.8322   -2.3537   -0.2275 H         1 <0>         0.1291
      4 C3          7.3548   -1.2355    1.5264 C.2       1 <0>         0.5394
      5 O1          7.7461   -1.0368    2.6570 O.2       1 <0>        -0.5251
      6 N1          6.0511   -1.0725    1.2260 N.am      1 <0>        -0.7195
      7 C4          5.1066   -0.6554    2.2653 C.3       1 <0>         0.1677
      8 C5          3.7246   -0.5476    1.6742 C.ar      1 <0>        -0.1028
      9 C6          2.8855   -1.6464    1.6768 C.ar      1 <0>        -0.0862
     10 C7          1.6171   -1.5526    1.1353 C.ar      1 <0>        -0.1015
     11 C8          1.1834   -0.3557    0.5885 C.ar      1 <0>         0.0415
     12 C9          2.0284    0.7513    0.5864 C.ar      1 <0>         0.0306
     13 C10         3.2983    0.6500    1.1309 C.ar      1 <0>        -0.0795
     14 O2          1.3764    1.7966   -0.0014 O.3       1 <0>        -0.3067
     15 C11        -0.0175    1.4357    0.0099 C.3       1 <0>         0.2130
     16 O3          0.0021   -0.0041    0.0020 O.3       1 <0>        -0.3078
     17 S1          9.7429   -2.4891    1.2251 S.3       1 <0>         0.0502
     18 C12        10.6150   -3.0050   -0.2164 C.2       1 <0>         0.3393
     19 N2         10.1066   -2.7192   -1.3897 N.2       1 <0>        -0.5101
     20 C13        10.7266   -3.0803   -2.5378 C.ar      1 <0>         0.1378
     21 C14        10.1852   -2.7698   -3.7884 C.ar      1 <0>        -0.0734
     22 C15        10.8540   -3.1667   -4.9395 C.ar      1 <0>        -0.0663
     23 C16        12.0613   -3.8720   -4.8524 C.ar      1 <0>        -0.0869
     24 C17        12.5994   -4.1813   -3.6363 C.ar      1 <0>        -0.0629
     25 C18        11.9450   -3.7927   -2.4678 C.ar      1 <0>        -0.1955
     26 C19        12.4897   -4.1053   -1.1369 C.2       1 <0>         0.5562
     27 O4         13.5346   -4.7164   -1.0107 O.2       1 <0>        -0.5157
     28 N3         11.7863   -3.6890   -0.0588 N.am      1 <0>        -0.5325
     29 C20        12.2852   -3.9747    1.2887 C.3       1 <0>         0.0597
     30 C21        10.2873   -2.8418   -6.2670 C.2       1 <0>         0.4879
     31 O5          9.2412   -2.2303   -6.3476 O.co2     1 <0>        -0.6214
     32 H2          9.3034    0.2534    0.3687 H         1 <0>         0.0668
     33 H3          9.5119   -0.7461   -1.0893 H         1 <0>         0.0990
     34 H4          7.9561    0.0608   -0.7784 H         1 <0>         0.0715
     35 H5          5.7381   -1.2314    0.3218 H         1 <0>         0.4081
     36 H6          5.4083    0.3136    2.6628 H         1 <0>         0.0822
     37 H7          5.1016   -1.3921    3.0687 H         1 <0>         0.0848
     38 H8          3.2220   -2.5802    2.1025 H         1 <0>         0.1423
     39 H9          0.9638   -2.4126    1.1387 H         1 <0>         0.1392
     40 H10         3.9558    1.5068    1.1302 H         1 <0>         0.1390
     41 H11        -0.5191    1.8168   -0.8796 H         1 <0>         0.1337
     42 H12        -0.5019    1.8072    0.9129 H         1 <0>         0.0857
     43 H13         9.2550   -2.2256   -3.8593 H         1 <0>         0.1446
     44 H14        12.5707   -4.1745   -5.7555 H         1 <0>         0.1431
     45 H15        13.5306   -4.7253   -3.5794 H         1 <0>         0.1336
     46 H16        11.8903   -4.9328    1.6268 H         1 <0>         0.0791
     47 H17        13.3743   -4.0161    1.2718 H         1 <0>         0.0969
     48 H18        11.9621   -3.1877    1.9702 H         1 <0>         0.0896
     49 O6         10.9317   -3.2243   -7.3862 O.co2     1 <0>        -0.7438
@<TRIPOS>BOND
     1    1    2 1
     2    1   32 1
     3    1   33 1
     4    1   34 1
     5    2    3 1
     6    2    4 1
     7    2   17 1
     8    4    5 2
     9    4    6 am
    10    6    7 1
    11    6   35 1
    12    7    8 1
    13    7   36 1
    14    7   37 1
    15    8   13 ar
    16    8    9 ar
    17    9   10 ar
    18    9   38 1
    19   10   11 ar
    20   10   39 1
    21   11   16 1
    22   11   12 ar
    23   12   13 ar
    24   12   14 1
    25   13   40 1
    26   14   15 1
    27   15   16 1
    28   15   41 1
    29   15   42 1
    30   17   18 1
    31   18   28 1
    32   18   19 2
    33   19   20 1
    34   20   25 ar
    35   20   21 ar
    36   21   22 ar
    37   21   43 1
    38   22   23 ar
    39   22   30 1
    40   23   24 ar
    41   23   44 1
    42   24   25 ar
    43   24   45 1
    44   25   26 1
    45   26   27 2
    46   26   28 am
    47   28   29 1
    48   29   46 1
    49   29   47 1
    50   29   48 1
    51   30   31 2
    52   30   49 1
@<TRIPOS>MOLECULE
ZINC21883096
   47    50     0     0     0
SMALL
USER_CHARGES

@<TRIPOS>ATOM
      1 C1          0.5012    0.9955    0.1992 C.3       1 <0>        -0.1337
      2 C2          0.3394   -0.5257    0.2258 C.3       1 <0>         0.0804
      3 H1          0.8622   -0.9611   -0.6258 H         1 <0>         0.1070
      4 C3         -1.1248   -0.8760    0.1483 C.2       1 <0>         0.4987
      5 O1         -1.8994   -0.1341   -0.4181 O.2       1 <0>        -0.4986
      6 N1         -1.5706   -2.0199    0.7119 N.am      1 <0>        -0.5337
      7 C4         -0.6605   -2.8421    1.3914 C.ar      1 <0>         0.1043
      8 C5         -0.9860   -4.1518    1.7031 C.ar      1 <0>        -0.1171
      9 C6         -0.0743   -4.9456    2.3747 C.ar      1 <0>        -0.1079
     10 C7          1.1597   -4.4357    2.7345 C.ar      1 <0>        -0.1119
     11 C8          1.4909   -3.1288    2.4253 C.ar      1 <0>        -0.1081
     12 C9          0.5837   -2.3283    1.7533 C.ar      1 <0>         0.0786
     13 O2          0.8929   -1.0421    1.4390 O.3       1 <0>        -0.3021
     14 C10        -2.9833   -2.3955    0.6150 C.3       1 <0>         0.0912
     15 C11        -3.1990   -3.2238   -0.6254 C.2       1 <0>         0.4884
     16 O3         -2.2645   -3.4756   -1.3566 O.2       1 <0>        -0.5059
     17 N2         -4.4302   -3.6847   -0.9223 N.am      1 <0>        -0.6564
     18 C12        -4.6532   -4.3598   -2.1296 C.ar      1 <0>         0.0814
     19 C13        -5.5992   -5.3794   -2.2032 C.ar      1 <0>        -0.1087
     20 C14        -5.8345   -6.0499   -3.3626 C.ar      1 <0>        -0.1038
     21 C15        -5.1229   -5.7337   -4.5427 C.ar      1 <0>         0.1679
     22 C16        -4.1698   -4.6953   -4.4397 C.ar      1 <0>        -0.1811
     23 C17        -3.9377   -4.0170   -3.2698 C.ar      1 <0>        -0.0316
     24 S1         -3.5183   -4.6132   -6.0905 S.3       1 <0>        -0.0789
     25 C18        -4.5175   -5.9183   -6.7921 C.2       1 <0>         0.5072
     26 N3         -5.2395   -6.3017   -5.7645 N.2       1 <0>        -0.6541
     27 N4         -4.5280   -6.4005   -8.0858 N.2       1 <0>        -1.0326
     28 S2         -5.5549   -7.6310   -8.5025 S.o2      1 <0>         2.5624
     29 O4         -5.1231   -8.7416   -7.7283 O.2       1 <0>        -1.0027
     30 O5         -6.8576   -7.0903   -8.3297 O.2       1 <0>        -1.0028
     31 C19        -5.2317   -7.9324  -10.2618 C.3       1 <0>        -0.6441
     32 H2          1.5598    1.2493    0.2540 H         1 <0>         0.0804
     33 H3          0.0805    1.3895   -0.7259 H         1 <0>         0.0927
     34 H4         -0.0215    1.4314    1.0506 H         1 <0>         0.0704
     35 H5         -1.9492   -4.5518    1.4229 H         1 <0>         0.1287
     36 H6         -0.3266   -5.9670    2.6185 H         1 <0>         0.1323
     37 H7          1.8674   -5.0602    3.2594 H         1 <0>         0.1337
     38 H8          2.4554   -2.7338    2.7081 H         1 <0>         0.1386
     39 H9         -3.2660   -2.9760    1.4932 H         1 <0>         0.1181
     40 H10        -3.5957   -1.4954    0.5618 H         1 <0>         0.1262
     41 H11        -5.1619   -3.5490   -0.3001 H         1 <0>         0.4072
     42 H12        -6.1590   -5.6440   -1.3183 H         1 <0>         0.1204
     43 H13        -6.5753   -6.8355   -3.3822 H         1 <0>         0.1246
     44 H14        -3.2028   -3.2263   -3.2348 H         1 <0>         0.1276
     45 H15        -4.1878   -8.2155  -10.3961 H         1 <0>         0.1190
     46 H16        -5.8751   -8.7374  -10.6167 H         1 <0>         0.1095
     47 H17        -5.4381   -7.0252  -10.8297 H         1 <0>         0.1190
@<TRIPOS>BOND
     1    1    2 1
     2    1   32 1
     3    1   33 1
     4    1   34 1
     5    2    3 1
     6    2   13 1
     7    2    4 1
     8    4    5 2
     9    4    6 am
    10    6    7 1
    11    6   14 1
    12    7   12 ar
    13    7    8 ar
    14    8    9 ar
    15    8   35 1
    16    9   10 ar
    17    9   36 1
    18   10   11 ar
    19   10   37 1
    20   11   12 ar
    21   11   38 1
    22   12   13 1
    23   14   15 1
    24   14   39 1
    25   14   40 1
    26   15   16 2
    27   15   17 am
    28   17   18 1
    29   17   41 1
    30   18   23 ar
    31   18   19 ar
    32   19   20 ar
    33   19   42 1
    34   20   21 ar
    35   20   43 1
    36   21   26 1
    37   21   22 ar
    38   22   23 ar
    39   22   24 1
    40   23   44 1
    41   24   25 1
    42   25   26 2
    43   25   27 1
    44   27   28 1
    45   28   29 2
    46   28   30 2
    47   28   31 1
    48   31   45 1
    49   31   46 1
    50   31   47 1
@<TRIPOS>MOLECULE
ZINC39691508
   46    49     0     0     0
SMALL
USER_CHARGES

@<TRIPOS>ATOM
      1 C1          2.7599   -1.0509    1.3862 C.3       1 <0>        -0.1140
      2 C2          1.5027   -1.2746    0.5859 C.ar      1 <0>        -0.0673
      3 C3          1.5756   -1.8378   -0.6729 C.ar      1 <0>        -0.1232
      4 C4          0.4224   -2.0435   -1.4080 C.ar      1 <0>        -0.1004
      5 C5         -0.8073   -1.6861   -0.8857 C.ar      1 <0>        -0.1224
      6 C6         -0.8875   -1.1220    0.3722 C.ar      1 <0>        -0.0591
      7 C7          0.2685   -0.9197    1.1160 C.ar      1 <0>         0.1330
      8 N1          0.1905   -0.3549    2.3915 N.pl3     1 <0>        -0.6252
      9 C8         -0.1108   -1.1542    3.4885 C.2       1 <0>         0.3419
     10 N2         -0.4449   -2.4294    3.5267 N.2       1 <0>        -0.3550
     11 N3         -0.7047   -3.0334    4.7351 N.2       1 <0>        -0.2862
     12 C9         -0.6181   -2.3336    5.8504 C.2       1 <0>         0.0323
     13 S1         -0.1411   -0.7304    5.2235 S.3       1 <0>        -0.0075
     14 S2         -0.8936   -2.8453    7.5138 S.3       1 <0>         0.1463
     15 C10        -1.3361   -4.5983    7.3662 C.3       1 <0>        -0.0665
     16 C11        -1.6011   -5.1667    8.7365 C.2       1 <0>         0.4586
     17 N4         -1.4846   -4.3588    9.7595 N.2       1 <0>        -0.6101
     18 C12        -1.7034   -4.7827   11.0181 C.2       1 <0>         0.5446
     19 O1         -1.5955   -4.0312   11.9702 O.2       1 <0>        -0.3949
     20 C13        -2.0829   -6.2075   11.1936 C.2       1 <0>        -0.3297
     21 C14        -2.3740   -6.9798   12.2666 C.2       1 <0>         0.0164
     22 C15        -2.6790   -8.3595   11.7283 C.3       1 <0>         0.0773
     23 H1         -1.9746   -9.0838   12.1373 H         1 <0>         0.1502
     24 O2         -2.5354   -8.2853   10.3067 O.3       1 <0>        -0.2514
     25 C16        -2.1862   -7.0319    9.9715 C.2       1 <0>         0.4661
     26 N5         -1.9397   -6.4448    8.8142 N.2       1 <0>        -0.5900
     27 C17        -4.1106   -8.7589   12.0912 C.3       1 <0>        -0.1454
     28 C18        -2.3902   -6.5566   13.6882 C.2       1 <0>         0.5214
     29 O3         -2.1217   -5.4024   13.9851 O.co2     1 <0>        -0.6040
     30 O4         -2.6720   -7.3624   14.5622 O.co2     1 <0>        -0.6595
     31 C19        -2.2278   -0.7325    0.9403 C.3       1 <0>        -0.1146
     32 H2          2.9692   -1.9348    1.9887 H         1 <0>         0.0726
     33 H3          3.5939   -0.8671    0.7088 H         1 <0>         0.0697
     34 H4          2.6260   -0.1890    2.0398 H         1 <0>         0.0653
     35 H5          2.5343   -2.1178   -1.0839 H         1 <0>         0.1266
     36 H6          0.4822   -2.4838   -2.3923 H         1 <0>         0.1259
     37 H7         -1.7059   -1.8481   -1.4625 H         1 <0>         0.1266
     38 H8          0.3466    0.5949    2.5117 H         1 <0>         0.4262
     39 H9         -2.2317   -4.6966    6.7526 H         1 <0>         0.1323
     40 H10        -0.5147   -5.1424    6.8998 H         1 <0>         0.1323
     41 H11        -4.8086   -8.0428   11.6576 H         1 <0>         0.0646
     42 H12        -4.3207   -9.7540   11.6992 H         1 <0>         0.0784
     43 H13        -4.2225   -8.7645   13.1755 H         1 <0>         0.1095
     44 H14        -2.6802   -1.5955    1.4287 H         1 <0>         0.0754
     45 H15        -2.0953    0.0685    1.6676 H         1 <0>         0.0639
     46 H16        -2.8775   -0.3886    0.1354 H         1 <0>         0.0688
@<TRIPOS>BOND
     1    1    2 1
     2    1   32 1
     3    1   33 1
     4    1   34 1
     5    2    7 ar
     6    2    3 ar
     7    3    4 ar
     8    3   35 1
     9    4    5 ar
    10    4   36 1
    11    5    6 ar
    12    5   37 1
    13    6    7 ar
    14    6   31 1
    15    7    8 1
    16    8    9 1
    17    8   38 1
    18    9   13 1
    19    9   10 2
    20   10   11 1
    21   11   12 2
    22   12   13 1
    23   12   14 1
    24   14   15 1
    25   15   16 1
    26   15   39 1
    27   15   40 1
    28   16   26 1
    29   16   17 2
    30   17   18 1
    31   18   19 2
    32   18   20 1
    33   20   25 1
    34   20   21 2
    35   21   22 1
    36   21   28 1
    37   22   23 1
    38   22   24 1
    39   22   27 1
    40   24   25 1
    41   25   26 2
    42   27   41 1
    43   27   42 1
    44   27   43 1
    45   28   29 2
    46   28   30 1
    47   31   44 1
    48   31   45 1
    49   31   46 1
@<TRIPOS>MOLECULE
ZINC15269458
   48    51     0     0     0
SMALL
USER_CHARGES

@<TRIPOS>ATOM
      1 C1          0.0352    1.3868    0.0149 C.ar      1 <0>        -0.1400
      2 C2          1.2275    2.0866    0.0031 C.ar      1 <0>        -0.0209
      3 C3          2.4292    1.4041   -0.0165 C.ar      1 <0>        -0.0748
      4 C4          2.4389    0.0215   -0.0237 C.ar      1 <0>         0.0422
      5 C5          1.2470   -0.6780   -0.0109 C.ar      1 <0>        -0.6185
      6 C6          0.0449    0.0048    0.0072 C.ar      1 <0>         0.0254
      7 S1          1.2594   -2.4399   -0.0212 S.o2      1 <0>         2.6027
      8 O1          0.0093   -2.8517   -0.5569 O.2       1 <0>        -1.0134
      9 O2          2.4996   -2.8340   -0.5919 O.2       1 <0>        -1.0118
     10 N1          1.2851   -2.9387    1.5577 N.2       1 <0>        -1.0769
     11 C7          1.2990   -4.2964    1.8578 C.ar      1 <0>         0.3114
     12 C8          1.2969   -5.2351    0.8297 C.ar      1 <0>        -0.2763
     13 C9          1.3102   -6.5794    1.1234 C.ar      1 <0>         0.0087
     14 C10         1.3262   -7.0021    2.4559 C.ar      1 <0>        -0.2567
     15 C11         1.3286   -6.0569    3.4861 C.ar      1 <0>        -0.0387
     16 C12         1.3206   -4.7140    3.1857 C.ar      1 <0>        -0.1869
     17 C13         1.3399   -8.4422    2.7743 C.2       1 <0>         0.5737
     18 O3          1.3373   -9.2633    1.8772 O.2       1 <0>        -0.5389
     19 N2          1.3553   -8.8482    4.0594 N.am      1 <0>        -0.6770
     20 C14         1.2704  -10.2124    4.3637 C.ar      1 <0>         0.1656
     21 C15         0.5816  -10.6303    5.4947 C.ar      1 <0>        -0.1453
     22 C16         0.4992  -11.9757    5.7963 C.ar      1 <0>        -0.0935
     23 C17         1.1029  -12.9131    4.9711 C.ar      1 <0>         0.0236
     24 C18         1.7906  -12.4982    3.8367 C.ar      1 <0>         0.0695
     25 C19         1.8698  -11.1479    3.5322 C.ar      1 <0>        -0.1182
     26 O4          2.3827  -13.4038    3.0109 O.3       1 <0>        -0.3040
     27 C20         2.5968  -14.7159    3.5421 C.3       1 <0>         0.0205
     28 C21         1.3074  -15.1677    4.2411 C.3       1 <0>         0.0211
     29 O5          1.0144  -14.2350    5.2871 O.3       1 <0>        -0.3100
     30 N3          3.7058    2.1532   -0.0301 N.pl3     1 <0>         0.0379
     31 O6          3.6972    3.3622   -0.0242 O.2       1 <0>        -0.1654
     32 O7          4.7569    1.5562   -0.0472 O.3       1 <0>        -0.1540
     33 H1         -0.9037    1.9201    0.0347 H         1 <0>         0.1537
     34 H2          1.2199    3.1666    0.0087 H         1 <0>         0.1562
     35 H3          3.3779   -0.5118   -0.0396 H         1 <0>         0.1669
     36 H4         -0.8865   -0.5419    0.0168 H         1 <0>         0.1579
     37 H5          1.2846   -4.9079   -0.1995 H         1 <0>         0.1050
     38 H6          1.3079   -7.3071    0.3254 H         1 <0>         0.1196
     39 H7          1.3410   -6.3803    4.5164 H         1 <0>         0.1101
     40 H8          1.3266   -3.9833    3.9810 H         1 <0>         0.1212
     41 H9          1.4252   -8.1954    4.7734 H         1 <0>         0.4114
     42 H10         0.1103   -9.9029    6.1391 H         1 <0>         0.1357
     43 H11        -0.0362  -12.2985    6.6769 H         1 <0>         0.1363
     44 H12         2.4019  -10.8237    2.6500 H         1 <0>         0.1539
     45 H13         2.8372  -15.4054    2.7329 H         1 <0>         0.1200
     46 H14         3.4158  -14.6923    4.2611 H         1 <0>         0.0762
     47 H15         0.4870  -15.1851    3.5236 H         1 <0>         0.0758
     48 H16         1.4477  -16.1624    4.6641 H         1 <0>         0.1192
@<TRIPOS>BOND
     1    1    6 ar
     2    1    2 ar
     3    1   33 1
     4    2    3 ar
     5    2   34 1
     6    3    4 ar
     7    3   30 1
     8    4    5 ar
     9    4   35 1
    10    5    6 ar
    11    5    7 1
    12    6   36 1
    13    7    8 2
    14    7    9 2
    15    7   10 1
    16   10   11 1
    17   11   16 ar
    18   11   12 ar
    19   12   13 ar
    20   12   37 1
    21   13   14 ar
    22   13   38 1
    23   14   15 ar
    24   14   17 1
    25   15   16 ar
    26   15   39 1
    27   16   40 1
    28   17   18 2
    29   17   19 am
    30   19   20 1
    31   19   41 1
    32   20   25 ar
    33   20   21 ar
    34   21   22 ar
    35   21   42 1
    36   22   23 ar
    37   22   43 1
    38   23   29 1
    39   23   24 ar
    40   24   25 ar
    41   24   26 1
    42   25   44 1
    43   26   27 1
    44   27   28 1
    45   27   45 1
    46   27   46 1
    47   28   29 1
    48   28   47 1
    49   28   48 1
    50   30   31 2
    51   30   32 1
@<TRIPOS>MOLECULE
ZINC36357413
   49    53     0     0     0
SMALL
USER_CHARGES

@<TRIPOS>ATOM
      1 C1         -0.1742    0.9774    0.3288 C.3       1 <0>        -0.0699
      2 C2         -0.0546   -0.4960    0.0360 C.2       1 <0>         0.1098
      3 C3          0.0170   -1.0707   -1.2246 C.2       1 <0>        -0.2874
      4 C4          0.1225   -2.4270   -1.0659 C.2       1 <0>         0.3433
      5 N1          0.1072   -2.6847    0.2588 N.pl3     1 <0>        -0.2746
      6 N2          0.0054   -1.4552    0.9302 N.2       1 <0>        -0.2841
      7 C5          0.1845   -3.9479    0.8555 C.ar      1 <0>         0.1431
      8 C6          0.6666   -4.0775    2.1574 C.ar      1 <0>        -0.0732
      9 C7          0.7243   -5.3480    2.7050 C.ar      1 <0>        -0.2060
     10 C8          0.2970   -6.4178    1.9208 C.ar      1 <0>         0.3602
     11 O1          0.3347   -7.6814    2.4153 O.3       1 <0>        -0.6823
     12 N3         -0.1458   -6.1994    0.6940 N.ar      1 <0>        -0.3257
     13 N4         -0.2046   -5.0213    0.1880 N.ar      1 <0>        -0.2162
     14 N5          0.2339   -3.2904   -2.1547 N.am      1 <0>        -0.6399
     15 C9          0.4397   -2.7511   -3.3750 C.2       1 <0>         0.5321
     16 O2          0.3512   -3.4618   -4.3538 O.2       1 <0>        -0.5194
     17 C10         0.7744   -1.2979   -3.5587 C.3       1 <0>        -0.1329
     18 C11        -0.0131   -0.4178   -2.5833 C.3       1 <0>         0.0444
     19 H1          0.4456    0.5693   -2.5267 H         1 <0>         0.1053
     20 C12        -1.4391   -0.2896   -3.0535 C.ar      1 <0>        -0.0633
     21 C13        -2.2197   -1.4205   -3.2066 C.ar      1 <0>        -0.0923
     22 C14        -3.5270   -1.3058   -3.6379 C.ar      1 <0>        -0.1052
     23 C15        -4.0568   -0.0542   -3.9171 C.ar      1 <0>         0.0812
     24 C16        -3.2716    1.0792   -3.7622 C.ar      1 <0>        -0.1096
     25 C17        -1.9664    0.9594   -3.3256 C.ar      1 <0>        -0.0994
     26 O3         -5.3425    0.0614   -4.3419 O.3       1 <0>        -0.2406
     27 C18        -6.3297   -0.0635   -3.4227 C.ar      1 <0>         0.3647
     28 C19        -7.6715   -0.0599   -3.8351 C.ar      1 <0>        -0.0998
     29 C20        -8.6744   -0.1903   -2.8678 C.ar      1 <0>         0.0064
     30 C21        -8.2966   -0.3174   -1.5424 C.ar      1 <0>        -0.2085
     31 C22        -6.9531   -0.3121   -1.2146 C.ar      1 <0>         0.1748
     32 N6         -6.0236   -0.1934   -2.1433 N.ar      1 <0>        -0.5185
     33 C23        -8.0080    0.0752   -5.2204 C.1       1 <0>         0.2631
     34 N7         -8.2749    0.1823   -6.3194 N.1       1 <0>        -0.4068
     35 H2          0.8214    1.4124    0.4167 H         1 <0>         0.0774
     36 H3         -0.7140    1.4664   -0.4822 H         1 <0>         0.0774
     37 H4         -0.7165    1.1192    1.2636 H         1 <0>         0.0733
     38 H5          0.9856   -3.2134    2.7213 H         1 <0>         0.1320
     39 H6          1.0897   -5.5051    3.7091 H         1 <0>         0.1318
     40 H7          0.1657   -4.2510   -2.0387 H         1 <0>         0.4282
     41 H8          1.8412   -1.1530   -3.3882 H         1 <0>         0.1102
     42 H9          0.5338   -1.0025   -4.5799 H         1 <0>         0.1108
     43 H10        -1.8068   -2.3945   -2.9892 H         1 <0>         0.1241
     44 H11        -4.1361   -2.1895   -3.7581 H         1 <0>         0.1240
     45 H12        -3.6815    2.0545   -3.9792 H         1 <0>         0.1286
     46 H13        -1.3562    1.8416   -3.2006 H         1 <0>         0.1339
     47 H14        -9.7173   -0.1913   -3.1485 H         1 <0>         0.1530
     48 H15        -9.0449   -0.4195   -0.7703 H         1 <0>         0.1514
     49 H16        -6.6593   -0.4110   -0.1800 H         1 <0>         0.1711
@<TRIPOS>BOND
     1    1    2 1
     2    1   35 1
     3    1   36 1
     4    1   37 1
     5    2    6 2
     6    2    3 1
     7    3   18 1
     8    3    4 2
     9    4    5 1
    10    4   14 1
    11    5    6 1
    12    5    7 1
    13    7   13 ar
    14    7    8 ar
    15    8    9 ar
    16    8   38 1
    17    9   10 ar
    18    9   39 1
    19   10   11 1
    20   10   12 ar
    21   12   13 ar
    22   14   15 am
    23   14   40 1
    24   15   16 2
    25   15   17 1
    26   17   18 1
    27   17   41 1
    28   17   42 1
    29   18   19 1
    30   18   20 1
    31   20   25 ar
    32   20   21 ar
    33   21   22 ar
    34   21   43 1
    35   22   23 ar
    36   22   44 1
    37   23   24 ar
    38   23   26 1
    39   24   25 ar
    40   24   45 1
    41   25   46 1
    42   26   27 1
    43   27   32 ar
    44   27   28 ar
    45   28   29 ar
    46   28   33 1
    47   29   30 ar
    48   29   47 1
    49   30   31 ar
    50   30   48 1
    51   31   32 ar
    52   31   49 1
    53   33   34 3
@<TRIPOS>MOLECULE
ZINC65021394
   55    58     0     0     0
SMALL
USER_CHARGES

@<TRIPOS>ATOM
      1 C1         -0.0187    1.5258    0.0104 C.3       1 <0>        -0.1501
      2 C2          0.0021   -0.0041    0.0020 C.3       1 <0>         0.0593
      3 O1          0.6932   -0.4774    1.1597 O.3       1 <0>        -0.3500
      4 C3          0.8010   -1.8124    1.3044 C.2       1 <0>         0.5141
      5 O2          0.3215   -2.5544    0.4707 O.2       1 <0>        -0.5137
      6 C4          1.5025   -2.3741    2.4771 C.ar      1 <0>        -0.0932
      7 C5          2.0498   -1.5233    3.4401 C.ar      1 <0>        -0.1672
      8 C6          2.7044   -2.0504    4.5342 C.ar      1 <0>        -0.0782
      9 C7          2.8214   -3.4200    4.6822 C.ar      1 <0>        -0.2317
     10 C8          2.2805   -4.2756    3.7298 C.ar      1 <0>         0.2670
     11 C9          1.6156   -3.7562    2.6293 C.ar      1 <0>        -0.1086
     12 N1          2.4016   -5.6589    3.8841 N.2       1 <0>        -1.0838
     13 S1          3.1897   -6.2791    5.2019 S.o2      1 <0>         2.6013
     14 O3          4.5526   -5.8970    5.0769 O.2       1 <0>        -1.0239
     15 O4          2.4057   -5.9442    6.3387 O.2       1 <0>        -1.0222
     16 C10         3.1435   -8.0346    5.0578 C.ar      1 <0>        -0.5726
     17 C11         2.0879   -8.7410    5.6049 C.ar      1 <0>        -0.0310
     18 C12         2.0515  -10.1191    5.4968 C.ar      1 <0>        -0.0781
     19 C13         3.0708  -10.7867    4.8382 C.ar      1 <0>        -0.1050
     20 C14         4.1349  -10.0813    4.2773 C.ar      1 <0>         0.1493
     21 C15         4.1587   -8.6949    4.3946 C.ar      1 <0>        -0.0379
     22 N2          5.1615  -10.7219    3.5900 N.am      1 <0>        -0.6369
     23 C16         5.1444  -11.9627    3.1145 C.2       1 <0>         0.5501
     24 O5          6.1645  -12.4107    2.6348 O.2       1 <0>        -0.5123
     25 C17         3.9203  -12.8406    3.1424 C.3       1 <0>        -0.1288
     26 H1          4.2185  -13.8872    3.0808 H         1 <0>         0.1654
     27 S2          3.0367  -12.5473    4.7055 S.3       1 <0>        -0.0403
     28 C18         3.0259  -12.4996    1.9785 C.2       1 <0>         0.5454
     29 O6          3.0094  -11.3701    1.5369 O.2       1 <0>        -0.5066
     30 N3          2.2442  -13.4497    1.4283 N.am      1 <0>        -0.6089
     31 C19         2.1613  -14.8506    1.8664 C.3       1 <0>         0.0904
     32 C20         1.1629  -15.5649    0.9312 C.3       1 <0>        -0.1297
     33 C21         1.1670  -14.6658   -0.3333 C.3       1 <0>        -0.1334
     34 C22         1.3260  -13.2548    0.2915 C.3       1 <0>         0.1053
     35 H2          1.0039    1.9031    0.0027 H         1 <0>         0.0655
     36 H3         -0.5459    1.8868   -0.8726 H         1 <0>         0.0747
     37 H4         -0.5289    1.8773    0.9072 H         1 <0>         0.0655
     38 H5         -1.0205   -0.3814    0.0098 H         1 <0>         0.0642
     39 H6          0.5123   -0.3556   -0.8948 H         1 <0>         0.0641
     40 H7          1.9609   -0.4528    3.3280 H         1 <0>         0.1191
     41 H8          3.1272   -1.3908    5.2775 H         1 <0>         0.1130
     42 H9          3.3353   -3.8265    5.5407 H         1 <0>         0.1033
     43 H10         1.1903   -4.4193    1.8905 H         1 <0>         0.1290
     44 H11         1.2936   -8.2172    6.1159 H         1 <0>         0.1508
     45 H12         1.2299  -10.6738    5.9253 H         1 <0>         0.1426
     46 H13         4.9767   -8.1332    3.9682 H         1 <0>         0.1495
     47 H14         5.9724  -10.2103    3.4427 H         1 <0>         0.4192
     48 H15         3.1415  -15.3213    1.7910 H         1 <0>         0.0717
     49 H16         1.8037  -14.8968    2.8951 H         1 <0>         0.0759
     50 H17         1.5104  -16.5697    0.6911 H         1 <0>         0.0850
     51 H18         0.1696  -15.5960    1.3790 H         1 <0>         0.0806
     52 H19         2.0095  -14.9070   -0.9814 H         1 <0>         0.0778
     53 H20         0.2242  -14.7477   -0.8740 H         1 <0>         0.0879
     54 H21         0.3635  -12.8814    0.6410 H         1 <0>         0.0746
     55 H22         1.7604  -12.5662   -0.4333 H         1 <0>         0.0822
@<TRIPOS>BOND
     1    1    2 1
     2    1   35 1
     3    1   36 1
     4    1   37 1
     5    2    3 1
     6    2   38 1
     7    2   39 1
     8    3    4 1
     9    4    5 2
    10    4    6 1
    11    6   11 ar
    12    6    7 ar
    13    7    8 ar
    14    7   40 1
    15    8    9 ar
    16    8   41 1
    17    9   10 ar
    18    9   42 1
    19   10   11 ar
    20   10   12 1
    21   11   43 1
    22   12   13 1
    23   13   14 2
    24   13   15 2
    25   13   16 1
    26   16   21 ar
    27   16   17 ar
    28   17   18 ar
    29   17   44 1
    30   18   19 ar
    31   18   45 1
    32   19   27 1
    33   19   20 ar
    34   20   21 ar
    35   20   22 1
    36   21   46 1
    37   22   23 am
    38   22   47 1
    39   23   24 2
    40   23   25 1
    41   25   26 1
    42   25   27 1
    43   25   28 1
    44   28   29 2
    45   28   30 am
    46   30   34 1
    47   30   31 1
    48   31   32 1
    49   31   48 1
    50   31   49 1
    51   32   33 1
    52   32   50 1
    53   32   51 1
    54   33   34 1
    55   33   52 1
    56   33   53 1
    57   34   54 1
    58   34   55 1
@<TRIPOS>MOLECULE
ZINC09223484
   56    60     0     0     0
SMALL
USER_CHARGES
N-benzo[1,3]dioxol-5-yl-3-[4-(2-pyridyl)piperazin-1-yl]carbonyl-benzenesulfonamide
@<TRIPOS>ATOM
      1 C1          2.7153    1.2268   -2.6272 C.ar      1 <0>         0.0372
      2 C2          4.0971    1.1864   -2.4933 C.ar      1 <0>        -0.1469
      3 C3          4.7612    2.2916   -2.0007 C.ar      1 <0>         0.1477
      4 C4          2.7823    3.4549   -1.7605 C.ar      1 <0>         0.3679
      5 C5          2.0490    2.3782   -2.2494 C.ar      1 <0>        -0.1513
      6 N1          2.1259    4.6201   -1.3816 N.pl3     1 <0>        -0.4752
      7 C6          1.3096    5.1466   -2.4836 C.3       1 <0>         0.0370
      8 C7          0.4660    6.3202   -1.9745 C.3       1 <0>         0.0760
      9 N2          1.3621    7.2996   -1.3413 N.am      1 <0>        -0.6193
     10 C8          2.3079    6.8204   -0.3220 C.3       1 <0>         0.1212
     11 C9          3.0790    5.6271   -0.8962 C.3       1 <0>         0.0034
     12 C10         1.3174    8.6019   -1.6856 C.2       1 <0>         0.5683
     13 O1          2.0283    9.4061   -1.1152 O.2       1 <0>        -0.5065
     14 C11         0.4038    9.0523   -2.7572 C.ar      1 <0>        -0.1574
     15 C12        -0.8230    8.4136   -2.9469 C.ar      1 <0>        -0.0548
     16 C13        -1.6730    8.8421   -3.9451 C.ar      1 <0>        -0.1380
     17 C14        -1.3073    9.8955   -4.7646 C.ar      1 <0>         0.0128
     18 C15        -0.0906   10.5290   -4.5857 C.ar      1 <0>        -0.6788
     19 C16         0.7665   10.1139   -3.5872 C.ar      1 <0>         0.0416
     20 S1          0.3654   11.8692   -5.6347 S.o2      1 <0>         2.6889
     21 O2         -0.8434   12.4951   -6.0426 O.2       1 <0>        -0.9347
     22 O3          1.4005   12.5754   -4.9647 O.2       1 <0>        -0.9351
     23 N3          1.0432   11.2159   -6.9971 N.pl3     1 <0>        -1.0512
     24 C17         2.2110   10.4514   -6.8999 C.ar      1 <0>         0.1524
     25 C18         3.2813   10.9115   -6.1442 C.ar      1 <0>        -0.1363
     26 C19         4.4333   10.1549   -6.0429 C.ar      1 <0>        -0.0747
     27 C20         4.5279    8.9407   -6.7033 C.ar      1 <0>         0.0248
     28 C21         3.4584    8.4792   -7.4666 C.ar      1 <0>         0.0482
     29 C22         2.3021    9.2355   -7.5634 C.ar      1 <0>        -0.1097
     30 O4          3.7976    7.2732   -8.0089 O.3       1 <0>        -0.3077
     31 C23         5.2314    7.1938   -7.9044 C.3       1 <0>         0.2123
     32 O5          5.5378    8.0227   -6.7677 O.3       1 <0>        -0.3088
     33 H1          2.1730    0.3766   -3.0139 H         1 <0>         0.1798
     34 H2          4.6469    0.3008   -2.7760 H         1 <0>         0.1878
     35 H3          5.8361    2.2660   -1.8992 H         1 <0>         0.1978
     36 H4          0.9744    2.4425   -2.3368 H         1 <0>         0.1869
     37 H5          1.9612    5.4888   -3.2876 H         1 <0>         0.0766
     38 H6          0.6524    4.3612   -2.8569 H         1 <0>         0.1185
     39 H7         -0.2583    5.9606   -1.2437 H         1 <0>         0.0977
     40 H8         -0.0569    6.7880   -2.8086 H         1 <0>         0.1334
     41 H9          1.7606    6.5088    0.5677 H         1 <0>         0.0930
     42 H10         3.0056    7.6166   -0.0625 H         1 <0>         0.1197
     43 H11         3.7050    5.1901   -0.1181 H         1 <0>         0.1075
     44 H12         3.7059    5.9626   -1.7223 H         1 <0>         0.0777
     45 H13        -1.1076    7.5885   -2.3108 H         1 <0>         0.1526
     46 H14        -2.6243    8.3518   -4.0900 H         1 <0>         0.1482
     47 H15        -1.9746   10.2242   -5.5476 H         1 <0>         0.1511
     48 H16         1.7158   10.6098   -3.4481 H         1 <0>         0.1544
     49 H17         0.6306   11.3632   -7.8626 H         1 <0>         0.4332
     50 H18         3.2118   11.8597   -5.6317 H         1 <0>         0.1727
     51 H19         5.2627   10.5124   -5.4507 H         1 <0>         0.1469
     52 H20         1.4717    8.8795   -8.1551 H         1 <0>         0.1444
     53 H21         5.7034    7.5880   -8.8043 H         1 <0>         0.0906
     54 H22         5.5459    6.1657   -7.7246 H         1 <0>         0.1319
     55 N4          4.1398    3.4413   -1.6246 N.ar      1 <0>        -0.5246
     56 H23         4.6597    4.2487   -1.2612 H         1 <0>         0.4689
@<TRIPOS>BOND
     1    1    5 ar
     2    1    2 ar
     3    1   33 1
     4    2    3 ar
     5    2   34 1
     6    3   35 1
     7    3   55 ar
     8    4    5 ar
     9    4    6 1
    10    4   55 ar
    11    5   36 1
    12    6   11 1
    13    6    7 1
    14    7    8 1
    15    7   37 1
    16    7   38 1
    17    8    9 1
    18    8   39 1
    19    8   40 1
    20    9   10 1
    21    9   12 am
    22   10   11 1
    23   10   41 1
    24   10   42 1
    25   11   43 1
    26   11   44 1
    27   12   13 2
    28   12   14 1
    29   14   19 ar
    30   14   15 ar
    31   15   16 ar
    32   15   45 1
    33   16   17 ar
    34   16   46 1
    35   17   18 ar
    36   17   47 1
    37   18   19 ar
    38   18   20 1
    39   19   48 1
    40   20   21 2
    41   20   22 2
    42   20   23 1
    43   23   24 1
    44   23   49 1
    45   24   29 ar
    46   24   25 ar
    47   25   26 ar
    48   25   50 1
    49   26   27 ar
    50   26   51 1
    51   27   32 1
    52   27   28 ar
    53   28   29 ar
    54   28   30 1
    55   29   52 1
    56   30   31 1
    57   31   32 1
    58   31   53 1
    59   31   54 1
    60   55   56 1
@<TRIPOS>MOLECULE
ZINC20688710
   73    76     0     0     0
SMALL
USER_CHARGES
N-[2-[(2S,6R)-2,6-dimethyl-1-piperidyl]ethyl]-1-(1,4-dioxa-8-azaspiro[4.5]decan-8-ylsulfonyl)piperidine-4-carboxamide
@<TRIPOS>ATOM
      1 C1         -7.8471    4.7771   -3.3812 C.3       1 <0>        -0.1846
      2 C2         -8.7548    5.2780   -2.2560 C.3       1 <0>         0.0283
      3 H1         -8.3270    5.0281   -1.2739 H         1 <0>         0.1313
      4 C3        -10.1459    4.6588   -2.4092 C.3       1 <0>        -0.1393
      5 C4        -11.0563    5.1784   -1.2931 C.3       1 <0>        -0.1416
      6 C5        -11.1087    6.7073   -1.3581 C.3       1 <0>        -0.1393
      7 C6         -9.6897    7.2672   -1.2354 C.3       1 <0>         0.0288
      8 H2         -9.2284    6.9458   -0.2899 H         1 <0>         0.1313
      9 N1         -8.8586    6.7412   -2.3258 N.4       1 <0>        -0.3925
     10 C7         -7.5282    7.3641   -2.3212 C.3       1 <0>        -0.0297
     11 C8         -6.8156    7.0353   -1.0078 C.3       1 <0>         0.0990
     12 N2         -5.4658    7.6043   -1.0288 N.am      1 <0>        -0.7466
     13 C9         -4.6486    7.4397    0.0302 C.2       1 <0>         0.5266
     14 O1         -5.0306    6.8205    1.0006 O.2       1 <0>        -0.5254
     15 C10        -3.2601    8.0251    0.0086 C.3       1 <0>        -0.1011
     16 C11        -2.5476    7.6961    1.3225 C.3       1 <0>        -0.1165
     17 C12        -1.1494    8.3219    1.3111 C.3       1 <0>         0.1177
     18 N3         -0.4377    7.8677    0.1086 N.pl3     1 <0>        -1.0068
     19 C13        -1.0729    8.0586   -1.2025 C.3       1 <0>         0.1197
     20 C14        -2.4743    7.4307   -1.1625 C.3       1 <0>        -0.1237
     21 S1          1.0548    7.1604    0.2281 S.o2      1 <0>         2.7800
     22 O2          1.6226    7.6139    1.4492 O.2       1 <0>        -0.9663
     23 O3          1.6953    7.3491   -1.0263 O.2       1 <0>        -0.9693
     24 N4          0.8124    5.5308    0.3953 N.pl3     1 <0>        -1.0058
     25 C15         0.7397    4.6598   -0.7857 C.3       1 <0>         0.1275
     26 C16         1.7531    3.5225   -0.6227 C.3       1 <0>        -0.1510
     27 C17         1.5028    2.8077    0.7066 C.3       1 <0>         0.2619
     28 C18         1.6804    3.7886    1.8671 C.3       1 <0>        -0.1349
     29 C19         0.6664    4.9285    1.7274 C.3       1 <0>         0.1263
     30 O4          0.1721    2.2760    0.7245 O.3       1 <0>        -0.3779
     31 C20         0.2847    0.8451    0.8640 C.3       1 <0>         0.0141
     32 C21         1.7258    0.5573    0.3736 C.3       1 <0>         0.0165
     33 O5          2.4372    1.7253    0.8495 O.3       1 <0>        -0.3632
     34 C22        -9.7350    8.7942   -1.3200 C.3       1 <0>        -0.1849
     35 H3         -7.7693    3.6811   -3.3290 H         1 <0>         0.1069
     36 H4         -6.8469    5.2214   -3.2707 H         1 <0>         0.0809
     37 H5         -8.2726    5.0687   -4.3528 H         1 <0>         0.0840
     38 H6        -10.5657    4.9377   -3.3869 H         1 <0>         0.0903
     39 H7        -10.0692    3.5635   -2.3421 H         1 <0>         0.1125
     40 H8        -12.0684    4.7681   -1.4247 H         1 <0>         0.0970
     41 H9        -10.6570    4.8635   -0.3177 H         1 <0>         0.0815
     42 H10       -11.5459    7.0187   -2.3183 H         1 <0>         0.0904
     43 H11       -11.7278    7.0884   -0.5326 H         1 <0>         0.1128
     44 H12        -6.9389    6.9763   -3.1652 H         1 <0>         0.1404
     45 H13        -7.6336    8.4547   -2.4181 H         1 <0>         0.1408
     46 H14        -7.3809    7.4633   -0.1668 H         1 <0>         0.0849
     47 H15        -6.7515    5.9436   -0.8887 H         1 <0>         0.0838
     48 H16        -5.1193    8.1659   -1.9089 H         1 <0>         0.4290
     49 H17        -3.3395    9.1158   -0.1102 H         1 <0>         0.1059
     50 H18        -3.1261    8.1028    2.1651 H         1 <0>         0.0858
     51 H19        -2.4616    6.6047    1.4297 H         1 <0>         0.0782
     52 H20        -1.2385    9.4182    1.2999 H         1 <0>         0.0785
     53 H21        -0.5998    8.0078    2.2107 H         1 <0>         0.0976
     54 H22        -1.1500    9.1342   -1.4194 H         1 <0>         0.0798
     55 H23        -0.4653    7.5706   -1.9788 H         1 <0>         0.0963
     56 H24        -2.3870    6.3421   -1.0306 H         1 <0>         0.0770
     57 H25        -3.0013    7.6448   -2.1040 H         1 <0>         0.0777
     58 H26        -0.2754    4.2451   -0.8735 H         1 <0>         0.0756
     59 H27         0.9764    5.2439   -1.6872 H         1 <0>         0.0950
     60 H28         1.6393    2.8084   -1.4516 H         1 <0>         0.0842
     61 H29         2.7725    3.9356   -0.6321 H         1 <0>         0.0899
     62 H30         1.5149    3.2636    2.8195 H         1 <0>         0.0901
     63 H31         2.7007    4.1993    1.8472 H         1 <0>         0.0890
     64 H32         0.8544    5.6913    2.4973 H         1 <0>         0.0982
     65 H33        -0.3546    4.5356    1.8423 H         1 <0>         0.0786
     66 H34         0.1337    0.5664    1.9173 H         1 <0>         0.0767
     67 H35        -0.4787    0.3548    0.2420 H         1 <0>         0.0990
     68 H36         2.0849   -0.3810    0.8214 H         1 <0>         0.1135
     69 H37         1.7286    0.4651   -0.7225 H         1 <0>         0.0784
     70 H38        -8.7151    9.1967   -1.2318 H         1 <0>         0.0809
     71 H39       -10.3567    9.1884   -0.5027 H         1 <0>         0.1072
     72 H40       -10.1657    9.0953   -2.2863 H         1 <0>         0.0840
     73 H41        -9.3505    6.9975   -3.2757 H         1 <0>         0.4394
@<TRIPOS>BOND
     1    1    2 1
     2    1   35 1
     3    1   36 1
     4    1   37 1
     5    2    3 1
     6    2    9 1
     7    2    4 1
     8    4    5 1
     9    4   38 1
    10    4   39 1
    11    5    6 1
    12    5   40 1
    13    5   41 1
    14    6    7 1
    15    6   42 1
    16    6   43 1
    17    7    8 1
    18    7    9 1
    19    7   34 1
    20    9   10 1
    21    9   73 1
    22   10   11 1
    23   10   44 1
    24   10   45 1
    25   11   12 1
    26   11   46 1
    27   11   47 1
    28   12   13 am
    29   12   48 1
    30   13   14 2
    31   13   15 1
    32   15   20 1
    33   15   16 1
    34   15   49 1
    35   16   17 1
    36   16   50 1
    37   16   51 1
    38   17   18 1
    39   17   52 1
    40   17   53 1
    41   18   19 1
    42   18   21 1
    43   19   20 1
    44   19   54 1
    45   19   55 1
    46   20   56 1
    47   20   57 1
    48   21   22 2
    49   21   23 2
    50   21   24 1
    51   24   29 1
    52   24   25 1
    53   25   26 1
    54   25   58 1
    55   25   59 1
    56   26   27 1
    57   26   60 1
    58   26   61 1
    59   27   33 1
    60   27   28 1
    61   27   30 1
    62   28   29 1
    63   28   62 1
    64   28   63 1
    65   29   64 1
    66   29   65 1
    67   30   31 1
    68   31   32 1
    69   31   66 1
    70   31   67 1
    71   32   33 1
    72   32   68 1
    73   32   69 1
    74   34   70 1
    75   34   71 1
    76   34   72 1
@<TRIPOS>MOLECULE
ZINC16000308
   59    64     0     0     0
SMALL
USER_CHARGES

@<TRIPOS>ATOM
      1 C1         -0.0184    1.5028    0.0103 C.3       1 <0>        -0.1114
      2 C2          0.0021   -0.0041    0.0020 C.ar      1 <0>        -0.0958
      3 C3          0.0058   -0.6904   -1.1988 C.ar      1 <0>        -0.0732
      4 C4          0.0253   -2.0693   -1.2083 C.ar      1 <0>        -0.0947
      5 C5          0.0419   -2.7805   -0.0111 C.ar      1 <0>         0.1618
      6 C6          0.0365   -2.0809    1.1941 C.ar      1 <0>        -0.1651
      7 C7          0.0229   -0.7031    1.1947 C.ar      1 <0>        -0.0679
      8 C8          0.0599   -3.1229    2.2712 C.3       1 <0>         0.1436
      9 C9          1.2415   -2.9775    3.2152 C.3       1 <0>        -0.1100
     10 H1          1.4250   -3.8822    3.7948 H         1 <0>         0.1600
     11 C10         0.6605   -1.7859    4.0692 C.3       1 <0>        -0.1851
     12 H2          0.5108   -1.0020    3.3267 H         1 <0>         0.1152
     13 C11        -0.7301   -2.1781    4.3549 C.3       1 <0>         0.1186
     14 H3         -0.8145   -2.7051    5.3053 H         1 <0>         0.1220
     15 N1         -1.1075   -3.0358    3.1723 N.3       1 <0>        -0.5009
     16 C12        -2.3215   -2.5286    2.5477 C.3       1 <0>         0.0421
     17 C13        -2.9210   -1.4893    3.5205 C.3       1 <0>        -0.1262
     18 C14        -1.6726   -0.9529    4.2930 C.3       1 <0>        -0.1413
     19 C15         1.8368   -1.3020    4.7496 C.2       1 <0>         0.5841
     20 O1          1.9070   -0.8346    5.8660 O.2       1 <0>        -0.4422
     21 N2          2.8599   -1.4891    3.8523 N.am      1 <0>        -0.5578
     22 C16         2.5093   -2.3016    2.7935 C.2       1 <0>         0.5587
     23 O2          3.0947   -2.4402    1.7410 O.2       1 <0>        -0.4280
     24 C17         4.1359   -0.9236    4.0002 C.ar      1 <0>         0.1298
     25 C18         5.1283   -1.6150    4.6789 C.ar      1 <0>        -0.0588
     26 C19         6.3840   -1.0563    4.8234 C.ar      1 <0>        -0.0808
     27 C20         6.6545    0.1917    4.2927 C.ar      1 <0>         0.0053
     28 C21         5.6704    0.8866    3.6150 C.ar      1 <0>        -0.1441
     29 C22         4.4104    0.3307    3.4609 C.ar      1 <0>         0.1538
     30 O3          3.4430    1.0105    2.7898 O.3       1 <0>        -0.2978
     31 C23         3.7963    2.2913    2.2638 C.3       1 <0>         0.0170
     32 N3          8.0012    0.7851    4.4512 N.pl3     1 <0>         0.0292
     33 O4          8.8630    0.1788    5.0440 O.2       1 <0>        -0.1406
     34 O5          8.2395    1.8761    3.9878 O.3       1 <0>        -0.1500
     35 C24         0.0794   -4.4418    1.5445 C.2       1 <0>         0.5558
     36 O6          0.1028   -5.5457    2.0464 O.2       1 <0>        -0.4682
     37 N4          0.0654   -4.1563    0.2287 N.am      1 <0>        -0.6577
     38 C25         0.0282   -2.8101   -2.5207 C.3       1 <0>        -0.1168
     39 H4          1.0042    1.8801    0.0026 H         1 <0>         0.0708
     40 H5         -0.5455    1.8639   -0.8728 H         1 <0>         0.0715
     41 H6         -0.5286    1.8543    0.9071 H         1 <0>         0.0666
     42 H7         -0.0071   -0.1453   -2.1310 H         1 <0>         0.1355
     43 H8          0.0243   -0.1663    2.1319 H         1 <0>         0.1216
     44 H9         -2.0811   -2.0538    1.5965 H         1 <0>         0.0661
     45 H10        -3.0283   -3.3433    2.3903 H         1 <0>         0.0884
     46 H11        -3.4263   -0.6942    2.9724 H         1 <0>         0.0825
     47 H12        -3.6021   -1.9675    4.2244 H         1 <0>         0.0803
     48 H13        -1.9241   -0.6113    5.2971 H         1 <0>         0.0934
     49 H14        -1.2178   -0.1479    3.7157 H         1 <0>         0.0671
     50 H15         4.9198   -2.5896    5.0947 H         1 <0>         0.1619
     51 H16         7.1558   -1.5955    5.3524 H         1 <0>         0.1677
     52 H17         5.8848    1.8611    3.2017 H         1 <0>         0.1678
     53 H18         4.6193    2.1798    1.5579 H         1 <0>         0.0660
     54 H19         2.9359    2.7244    1.7535 H         1 <0>         0.1122
     55 H20         4.1030    2.9468    3.0789 H         1 <0>         0.0660
     56 H21         0.0705   -4.8279   -0.4712 H         1 <0>         0.4180
     57 H22         1.0565   -2.9741   -2.8430 H         1 <0>         0.0752
     58 H23        -0.4713   -3.7710   -2.3966 H         1 <0>         0.0634
     59 H24        -0.4984   -2.2211   -3.2716 H         1 <0>         0.0754
@<TRIPOS>BOND
     1    1    2 1
     2    1   39 1
     3    1   40 1
     4    1   41 1
     5    2    7 ar
     6    2    3 ar
     7    3    4 ar
     8    3   42 1
     9    4    5 ar
    10    4   38 1
    11    5   37 1
    12    5    6 ar
    13    6    7 ar
    14    6    8 1
    15    7   43 1
    16    8   15 1
    17    8    9 1
    18    8   35 1
    19    9   10 1
    20    9   22 1
    21    9   11 1
    22   11   12 1
    23   11   13 1
    24   11   19 1
    25   13   14 1
    26   13   18 1
    27   13   15 1
    28   15   16 1
    29   16   17 1
    30   16   44 1
    31   16   45 1
    32   17   18 1
    33   17   46 1
    34   17   47 1
    35   18   48 1
    36   18   49 1
    37   19   20 2
    38   19   21 am
    39   21   22 am
    40   21   24 1
    41   22   23 2
    42   24   29 ar
    43   24   25 ar
    44   25   26 ar
    45   25   50 1
    46   26   27 ar
    47   26   51 1
    48   27   28 ar
    49   27   32 1
    50   28   29 ar
    51   28   52 1
    52   29   30 1
    53   30   31 1
    54   31   53 1
    55   31   54 1
    56   31   55 1
    57   32   33 2
    58   32   34 1
    59   35   36 2
    60   35   37 am
    61   37   56 1
    62   38   57 1
    63   38   58 1
    64   38   59 1
@<TRIPOS>MOLECULE
ZINC39674456
   76    79     0     0     0
SMALL
USER_CHARGES

@<TRIPOS>ATOM
      1 C1         -4.0257    2.4429   -7.2139 C.3       1 <0>        -0.1173
      2 C2         -3.7807    0.9327   -7.2267 C.3       1 <0>        -0.0358
      3 H1         -4.7017    0.3960   -7.4541 H         1 <0>         0.1476
      4 C3         -3.2036    0.4710   -5.9002 C.2       1 <0>        -0.1654
      5 C4         -2.0107   -0.0312   -6.2262 C.2       1 <0>        -0.0003
      6 N1         -1.7962    0.0660   -7.5569 N.2       1 <0>        -0.1577
      7 N2         -2.7233    0.5847   -8.1912 N.2       1 <0>        -0.1407
      8 C5         -1.0352   -0.6261   -5.2435 C.3       1 <0>        -0.0980
      9 C6         -3.8318    0.5596   -4.5332 C.3       1 <0>         0.2116
     10 H2         -3.1288    0.1917   -3.7858 H         1 <0>         0.1124
     11 C7         -5.1031   -0.2910   -4.5000 C.3       1 <0>        -0.1610
     12 N3         -4.1698    1.9547   -4.2407 N.am      1 <0>        -0.7270
     13 C8         -4.2332    2.3791   -2.9630 C.2       1 <0>         0.5226
     14 O1         -4.0104    1.6060   -2.0555 O.2       1 <0>        -0.5130
     15 C9         -4.5810    3.8142   -2.6621 C.3       1 <0>        -0.1143
     16 H3         -4.1930    4.4695   -3.4419 H         1 <0>         0.1123
     17 C10        -4.0180    4.2265   -1.2835 C.3       1 <0>         0.1091
     18 N4         -5.0560    5.1117   -0.7047 N.am      1 <0>        -0.6237
     19 C11        -6.3390    4.4779   -1.0921 C.3       1 <0>         0.1084
     20 C12        -6.1044    3.9801   -2.5322 C.3       1 <0>        -0.0726
     21 C13        -6.6112    5.0111   -3.5362 C.3       1 <0>        -0.1344
     22 C14        -8.1349    5.1170   -3.4267 C.3       1 <0>        -0.0114
     23 N5         -8.7386    3.8060   -3.6943 N.4       1 <0>        -0.5045
     24 C15        -8.3185    2.8425   -2.6697 C.3       1 <0>        -0.0079
     25 C16        -6.8025    2.6407   -2.7469 C.3       1 <0>        -0.1494
     26 C17        -4.8746    6.2386    0.0121 C.2       1 <0>         0.5331
     27 O2         -5.8336    6.8582    0.4209 O.2       1 <0>        -0.5080
     28 C18        -3.4800    6.7286    0.3056 C.3       1 <0>         0.1086
     29 H4         -2.8386    6.6049   -0.5670 H         1 <0>         0.0935
     30 C19        -2.8892    5.9908    1.5242 C.3       1 <0>        -0.1168
     31 C20        -2.6435    7.0935    2.5292 C.2       1 <0>         0.0429
     32 N6         -2.9975    8.2094    2.0374 N.2       1 <0>        -0.2109
     33 N7         -3.5040    8.1360    0.7375 N.pl3     1 <0>        -0.5196
     34 C21        -3.9799    9.2669   -0.0630 C.3       1 <0>         0.2297
     35 C22        -4.4328    8.7653   -1.4357 C.3       1 <0>        -0.1587
     36 C23        -5.1570    9.9364    0.6491 C.3       1 <0>        -0.1583
     37 C24        -2.8470   10.2800   -0.2386 C.3       1 <0>        -0.1585
     38 C25        -2.0660    6.8976    3.9073 C.3       1 <0>        -0.0743
     39 H5         -4.2308    2.7863   -8.2278 H         1 <0>         0.0889
     40 H6         -4.8797    2.6670   -6.5747 H         1 <0>         0.0645
     41 H7         -3.1413    2.9512   -6.8299 H         1 <0>         0.0681
     42 H8         -1.2266   -1.6944   -5.1429 H         1 <0>         0.0871
     43 H9         -0.0178   -0.4715   -5.6027 H         1 <0>         0.0867
     44 H10        -1.1557   -0.1425   -4.2740 H         1 <0>         0.0783
     45 H11        -4.8515   -1.3290   -4.7176 H         1 <0>         0.0775
     46 H12        -5.5574   -0.2269   -3.5112 H         1 <0>         0.0714
     47 H13        -5.8060    0.0769   -5.2474 H         1 <0>         0.0582
     48 H14        -4.3480    2.5730   -4.9665 H         1 <0>         0.3992
     49 H15        -3.8733    3.3484   -0.6541 H         1 <0>         0.1043
     50 H16        -3.0798    4.7684   -1.4028 H         1 <0>         0.0925
     51 H17        -6.5647    3.6410   -0.4313 H         1 <0>         0.0847
     52 H18        -7.1466    5.2096   -1.0703 H         1 <0>         0.0887
     53 H19        -6.1626    5.9807   -3.3199 H         1 <0>         0.1185
     54 H20        -6.3395    4.7008   -4.5451 H         1 <0>         0.0954
     55 H21        -8.4050    5.4430   -2.4223 H         1 <0>         0.1346
     56 H22        -8.5018    5.8410   -4.1542 H         1 <0>         0.1408
     57 H23        -9.7439    3.8913   -3.6817 H         1 <0>         0.4354
     58 H24        -8.5845    3.2223   -1.6833 H         1 <0>         0.1342
     59 H25        -8.8207    1.8900   -2.8393 H         1 <0>         0.1402
     60 H26        -6.5375    2.2452   -3.7274 H         1 <0>         0.0975
     61 H27        -6.4890    1.9389   -1.9740 H         1 <0>         0.1262
     62 H28        -3.6035    5.2672    1.9168 H         1 <0>         0.0918
     63 H29        -1.9530    5.5002    1.2577 H         1 <0>         0.1037
     64 H30        -5.2845    8.0958   -1.3150 H         1 <0>         0.0635
     65 H31        -4.7228    9.6140   -2.0551 H         1 <0>         0.0771
     66 H32        -3.6139    8.2287   -1.9148 H         1 <0>         0.0551
     67 H33        -4.8343   10.2937    1.6270 H         1 <0>         0.0627
     68 H34        -5.5111   10.7778    0.0535 H         1 <0>         0.0601
     69 H35        -5.9641    9.2146    0.7742 H         1 <0>         0.0675
     70 H36        -2.0084    9.8031   -0.7460 H         1 <0>         0.0549
     71 H37        -3.2011   11.1214   -0.8343 H         1 <0>         0.0665
     72 H38        -2.5243   10.6374    0.7393 H         1 <0>         0.0676
     73 H39        -0.9803    6.9837    3.8619 H         1 <0>         0.0809
     74 H40        -2.4630    7.6585    4.5792 H         1 <0>         0.0787
     75 H41        -2.3368    5.9089    4.2776 H         1 <0>         0.0779
     76 H42        -8.4427    3.4799   -4.6021 H         1 <0>         0.4269
@<TRIPOS>BOND
     1    1    2 1
     2    1   39 1
     3    1   40 1
     4    1   41 1
     5    2    3 1
     6    2    7 1
     7    2    4 1
     8    4    5 2
     9    4    9 1
    10    5    6 1
    11    5    8 1
    12    6    7 2
    13    8   42 1
    14    8   43 1
    15    8   44 1
    16    9   10 1
    17    9   11 1
    18    9   12 1
    19   11   45 1
    20   11   46 1
    21   11   47 1
    22   12   13 am
    23   12   48 1
    24   13   14 2
    25   13   15 1
    26   15   16 1
    27   15   20 1
    28   15   17 1
    29   17   18 1
    30   17   49 1
    31   17   50 1
    32   18   19 1
    33   18   26 am
    34   19   20 1
    35   19   51 1
    36   19   52 1
    37   20   25 1
    38   20   21 1
    39   21   22 1
    40   21   53 1
    41   21   54 1
    42   22   23 1
    43   22   55 1
    44   22   56 1
    45   23   24 1
    46   23   57 1
    47   23   76 1
    48   24   25 1
    49   24   58 1
    50   24   59 1
    51   25   60 1
    52   25   61 1
    53   26   27 2
    54   26   28 1
    55   28   29 1
    56   28   33 1
    57   28   30 1
    58   30   31 1
    59   30   62 1
    60   30   63 1
    61   31   32 2
    62   31   38 1
    63   32   33 1
    64   33   34 1
    65   34   35 1
    66   34   36 1
    67   34   37 1
    68   35   64 1
    69   35   65 1
    70   35   66 1
    71   36   67 1
    72   36   68 1
    73   36   69 1
    74   37   70 1
    75   37   71 1
    76   37   72 1
    77   38   73 1
    78   38   74 1
    79   38   75 1
@<TRIPOS>MOLECULE
ZINC63272504
   58    62     0     0     0
SMALL
USER_CHARGES

@<TRIPOS>ATOM
      1 C1          0.1203    1.1545    0.7624 C.ar      1 <0>        -0.1143
      2 C2          1.3067    1.8628    0.7612 C.ar      1 <0>        -0.0932
      3 C3          2.3826    1.4186    0.0075 C.ar      1 <0>         0.0391
      4 C4          2.2682    0.2567   -0.7474 C.ar      1 <0>         0.0713
      5 C5          1.0775   -0.4528   -0.7471 C.ar      1 <0>        -0.1400
      6 C6          0.0024   -0.0045    0.0078 C.ar      1 <0>         0.1470
      7 N1         -1.2013   -0.7214    0.0077 N.am      1 <0>        -0.6699
      8 C7         -2.3747   -0.0682    0.1223 C.2       1 <0>         0.5142
      9 O1         -2.3955    1.1446    0.1292 O.2       1 <0>        -0.5202
     10 C8         -3.6607   -0.8445    0.2419 C.3       1 <0>        -0.1329
     11 C9         -4.8353    0.1291    0.3579 C.3       1 <0>        -0.0773
     12 C10        -6.1410   -0.6592    0.4793 C.3       1 <0>         0.0311
     13 H1         -6.0825   -1.3697    1.3037 H         1 <0>         0.1436
     14 C11        -7.3147    0.2814    0.6697 C.2       1 <0>         0.5137
     15 O2         -7.4969    1.0587    1.5823 O.2       1 <0>        -0.4595
     16 N2         -8.1125    0.0662   -0.3976 N.am      1 <0>        -0.5680
     17 C12        -7.5735   -0.8903   -1.2195 C.2       1 <0>         0.5317
     18 N3         -6.4435   -1.3549   -0.7818 N.2       1 <0>        -0.5481
     19 O3         -8.1582   -1.3072   -2.3637 O.3       1 <0>        -0.4568
     20 C13        -9.3801    0.7583   -0.6437 C.3       1 <0>         0.1201
     21 C14        -9.1191    2.0250   -1.4612 C.3       1 <0>        -0.1137
     22 C15       -10.4230    2.7370   -1.7144 C.2       1 <0>         0.0744
     23 C16       -10.9485    3.7523   -0.9920 C.ar      1 <0>        -0.1495
     24 C17       -10.4814    4.4696    0.2003 C.ar      1 <0>        -0.0631
     25 C18       -11.2449    5.4658    0.7085 C.ar      1 <0>         0.0835
     26 C19       -12.4690    5.8278    0.1239 C.ar      1 <0>         0.0218
     27 C20       -12.9628    5.2142   -0.9717 C.ar      1 <0>        -0.1749
     28 C21       -12.2426    4.1538   -1.5886 C.ar      1 <0>         0.3257
     29 N4        -12.5066    3.4153   -2.6390 N.pl3     1 <0>        -0.5751
     30 C22       -11.4054    2.4651   -2.8315 C.3       1 <0>         0.0610
     31 F1        -10.8182    6.1278    1.8061 F         1 <0>        -0.1099
     32 O4          3.3159   -0.1991   -1.4873 O.3       1 <0>        -0.3061
     33 C23         4.3671    0.7344   -1.7582 C.3       1 <0>         0.0206
     34 C24         4.7162    1.4578   -0.4505 C.3       1 <0>         0.0195
     35 O5          3.5425    2.1324    0.0156 O.3       1 <0>        -0.3060
     36 H2         -0.7142    1.5004    1.3542 H         1 <0>         0.1431
     37 H3          1.3962    2.7647    1.3485 H         1 <0>         0.1400
     38 H4          0.9860   -1.3542   -1.3348 H         1 <0>         0.1386
     39 H5         -1.1903   -1.6878   -0.0748 H         1 <0>         0.4138
     40 H6         -3.7920   -1.4685   -0.6422 H         1 <0>         0.1101
     41 H7         -3.6229   -1.4757    1.1297 H         1 <0>         0.1039
     42 H8         -4.7040    0.7531    1.2419 H         1 <0>         0.0932
     43 H9         -4.8731    0.7602   -0.5300 H         1 <0>         0.0775
     44 H10        -7.6582   -1.9871   -2.8358 H         1 <0>         0.4408
     45 H11       -10.0515    0.1012   -1.1963 H         1 <0>         0.1067
     46 H12        -9.8375    1.0280    0.3081 H         1 <0>         0.1048
     47 H13        -8.4476    2.6822   -0.9086 H         1 <0>         0.1160
     48 H14        -8.6616    1.7553   -2.4131 H         1 <0>         0.1214
     49 H15        -9.5429    4.2066    0.6656 H         1 <0>         0.1734
     50 H16       -13.0388    6.6298    0.5696 H         1 <0>         0.1754
     51 H17       -13.9103    5.5299   -1.3827 H         1 <0>         0.1732
     52 H18       -10.9296    2.6288   -3.7984 H         1 <0>         0.1807
     53 H19       -11.7780    1.4430   -2.7638 H         1 <0>         0.1793
     54 H20         5.2435    0.2034   -2.1298 H         1 <0>         0.1255
     55 H21         4.0331    1.4587   -2.5011 H         1 <0>         0.0794
     56 H22         5.0438    0.7328    0.2945 H         1 <0>         0.0796
     57 H23         5.5094    2.1831   -0.6321 H         1 <0>         0.1249
     58 H24       -13.2962    3.4875   -3.1978 H         1 <0>         0.4588
@<TRIPOS>BOND
     1    1    6 ar
     2    1    2 ar
     3    1   36 1
     4    2    3 ar
     5    2   37 1
     6    3   35 1
     7    3    4 ar
     8    4    5 ar
     9    4   32 1
    10    5    6 ar
    11    5   38 1
    12    6    7 1
    13    7    8 am
    14    7   39 1
    15    8    9 2
    16    8   10 1
    17   10   11 1
    18   10   40 1
    19   10   41 1
    20   11   12 1
    21   11   42 1
    22   11   43 1
    23   12   13 1
    24   12   18 1
    25   12   14 1
    26   14   15 2
    27   14   16 am
    28   16   17 1
    29   16   20 1
    30   17   18 2
    31   17   19 1
    32   19   44 1
    33   20   21 1
    34   20   45 1
    35   20   46 1
    36   21   22 1
    37   21   47 1
    38   21   48 1
    39   22   30 1
    40   22   23 2
    41   23   28 ar
    42   23   24 ar
    43   24   25 ar
    44   24   49 1
    45   25   26 ar
    46   25   31 1
    47   26   27 ar
    48   26   50 1
    49   27   28 ar
    50   27   51 1
    51   28   29 2
    52   29   30 1
    53   29   58 1
    54   30   52 1
    55   30   53 1
    56   32   33 1
    57   33   34 1
    58   33   54 1
    59   33   55 1
    60   34   35 1
    61   34   56 1
    62   34   57 1
@<TRIPOS>MOLECULE
ZINC16910288
   46    48     0     0     0
SMALL
USER_CHARGES
(2R)-2-[2-[(E)-[3-[(4-nitrobenzoyl)amino]-4-oxo-2-thioxo-thiazolidin-5-ylidene]methyl]phenoxy]propanoic acid
@<TRIPOS>ATOM
      1 C1          4.8276    5.9706    3.4729 C.3       1 <0>        -0.1579
      2 C2          4.6517    6.2594    1.9808 C.3       1 <0>         0.0354
      3 H1          5.6302    6.3180    1.5042 H         1 <0>         0.0791
      4 C3          3.9279    7.5695    1.8047 C.2       1 <0>         0.4740
      5 O1          2.8284    7.5897    1.3042 O.co2     1 <0>        -0.6129
      6 O2          3.8908    5.2102    1.3789 O.3       1 <0>        -0.2792
      7 C4          4.5728    4.1090    0.9736 C.ar      1 <0>         0.1912
      8 C5          5.9259    3.9886    1.2462 C.ar      1 <0>        -0.2282
      9 C6          6.6204    2.8695    0.8285 C.ar      1 <0>        -0.0426
     10 C7          5.9720    1.8574    0.1393 C.ar      1 <0>        -0.1798
     11 C8          4.6259    1.9557   -0.1369 C.ar      1 <0>        -0.0058
     12 C9          3.9091    3.0834    0.2804 C.ar      1 <0>        -0.1610
     13 C10         2.4747    3.1960   -0.0097 C.2       1 <0>         0.1624
     14 C11         1.6630    2.1197    0.1514 C.2       1 <0>        -0.2809
     15 C12         1.9594    0.7963    0.7349 C.2       1 <0>         0.5431
     16 O3          3.0634    0.5209    1.1671 O.2       1 <0>        -0.4396
     17 N1          0.9647   -0.0746    0.7646 N.am      1 <0>        -0.3232
     18 C13        -0.2572    0.2348    0.2851 C.2       1 <0>         0.2716
     19 S1         -1.6595   -0.7460    0.2352 S.2       1 <0>        -0.3292
     20 S2         -0.0586    1.9154   -0.2847 S.3       1 <0>         0.1227
     21 N2          1.1853   -1.3477    1.3062 N.am      1 <0>        -0.5164
     22 C14         1.3069   -2.4147    0.4918 C.2       1 <0>         0.5716
     23 O4          1.2250   -2.2724   -0.7126 O.2       1 <0>        -0.4876
     24 C15         1.5397   -3.7582    1.0634 C.ar      1 <0>        -0.0694
     25 C16         1.6399   -3.9241    2.4456 C.ar      1 <0>        -0.0812
     26 C17         1.8525   -5.1812    2.9727 C.ar      1 <0>        -0.0567
     27 C18         1.9772   -6.2744    2.1338 C.ar      1 <0>        -0.0189
     28 C19         1.8837   -6.1160    0.7625 C.ar      1 <0>        -0.0573
     29 C20         1.6660   -4.8652    0.2227 C.ar      1 <0>        -0.0508
     30 N3          2.2113   -7.6193    2.7059 N.pl3     1 <0>         0.0229
     31 O5          2.3212   -8.5835    1.9699 O.2       1 <0>        -0.1496
     32 O6          2.2942   -7.7617    3.9127 O.3       1 <0>        -0.1498
     33 H2          5.4080    6.7709    3.9320 H         1 <0>         0.0812
     34 H3          3.8491    5.9120    3.9495 H         1 <0>         0.0617
     35 H4          5.3511    5.0230    3.6003 H         1 <0>         0.0512
     36 H5          6.4395    4.7728    1.7825 H         1 <0>         0.1393
     37 H6          7.6760    2.7833    1.0403 H         1 <0>         0.1265
     38 H7          6.5244    0.9870   -0.1826 H         1 <0>         0.1237
     39 H8          4.1248    1.1645   -0.6747 H         1 <0>         0.1220
     40 H9          2.0649    4.1350   -0.3514 H         1 <0>         0.1694
     41 H10         1.2506   -1.4612    2.2673 H         1 <0>         0.4297
     42 H11         1.5476   -3.0709    3.1012 H         1 <0>         0.1513
     43 H12         1.9262   -5.3116    4.0422 H         1 <0>         0.1649
     44 H13         1.9816   -6.9734    0.1131 H         1 <0>         0.1657
     45 H14         1.5939   -4.7428   -0.8479 H         1 <0>         0.1650
     46 O7          4.5048    8.7139    2.2038 O.co2     1 <0>        -0.7476
@<TRIPOS>BOND
     1    1    2 1
     2    1   33 1
     3    1   34 1
     4    1   35 1
     5    2    3 1
     6    2    4 1
     7    2    6 1
     8    4    5 2
     9    4   46 1
    10    6    7 1
    11    7   12 ar
    12    7    8 ar
    13    8    9 ar
    14    8   36 1
    15    9   10 ar
    16    9   37 1
    17   10   11 ar
    18   10   38 1
    19   11   12 ar
    20   11   39 1
    21   12   13 1
    22   13   14 2
    23   13   40 1
    24   14   20 1
    25   14   15 1
    26   15   16 2
    27   15   17 am
    28   17   18 1
    29   17   21 1
    30   18   19 2
    31   18   20 1
    32   21   22 am
    33   21   41 1
    34   22   23 2
    35   22   24 1
    36   24   29 ar
    37   24   25 ar
    38   25   26 ar
    39   25   42 1
    40   26   27 ar
    41   26   43 1
    42   27   28 ar
    43   27   30 1
    44   28   29 ar
    45   28   44 1
    46   29   45 1
    47   30   31 2
    48   30   32 1
@<TRIPOS>MOLECULE
ZINC30858681
   55    58     0     0     0
SMALL
USER_CHARGES
N-[4-[(4-methylpyrimidin-2-yl)sulfamoyl]phenyl]-4-[(2-oxopyrrolidin-1-yl)methyl]benzamide
@<TRIPOS>ATOM
      1 C1         -2.3150    4.4280   -0.0627 C.3       1 <0>        -0.0980
      2 C2         -2.4775    4.2842    1.4286 C.ar      1 <0>         0.1982
      3 C3         -3.6620    4.6575    2.0444 C.ar      1 <0>        -0.3337
      4 C4         -3.7722    4.5033    3.4172 C.ar      1 <0>         0.1873
      5 N1         -2.7461    4.0179    4.0965 N.ar      1 <0>        -0.6120
      6 C5         -1.6255    3.6760    3.4782 C.ar      1 <0>         0.5875
      7 N2         -1.4898    3.8053    2.1664 N.ar      1 <0>        -0.5505
      8 N3         -0.5716    3.1713    4.2199 N.2       1 <0>        -1.0128
      9 S1         -0.5622    3.3409    5.8671 S.o2      1 <0>         2.6259
     10 O1          0.6197    2.7051    6.3342 O.2       1 <0>        -0.9975
     11 O2         -0.8502    4.7061    6.1365 O.2       1 <0>        -1.0220
     12 C6         -1.9181    2.4069    6.4947 C.ar      1 <0>        -0.6632
     13 C7         -3.1549    3.0055    6.6506 C.ar      1 <0>         0.0304
     14 C8         -4.2211    2.2747    7.1369 C.ar      1 <0>        -0.1558
     15 C9         -4.0474    0.9400    7.4798 C.ar      1 <0>         0.1773
     16 C10        -2.8025    0.3433    7.3273 C.ar      1 <0>        -0.1801
     17 C11        -1.7417    1.0783    6.8356 C.ar      1 <0>        -0.0111
     18 N4         -5.1236    0.1987    7.9779 N.am      1 <0>        -0.6798
     19 C12        -6.3742    0.4511    7.5436 C.2       1 <0>         0.5542
     20 O3         -6.5567    1.2552    6.6503 O.2       1 <0>        -0.5099
     21 C13        -7.5239   -0.2497    8.1534 C.ar      1 <0>        -0.1225
     22 C14        -7.3173   -1.1779    9.1753 C.ar      1 <0>        -0.0888
     23 C15        -8.3951   -1.8254    9.7431 C.ar      1 <0>        -0.1121
     24 C16        -9.6777   -1.5635    9.2952 C.ar      1 <0>        -0.0887
     25 C17        -9.8890   -0.6485    8.2790 C.ar      1 <0>        -0.1027
     26 C18        -8.8205    0.0094    7.7059 C.ar      1 <0>        -0.0586
     27 C19       -10.8498   -2.2784    9.9166 C.3       1 <0>         0.1609
     28 N5        -11.1090   -3.5201    9.1835 N.am      1 <0>        -0.6172
     29 C20       -10.5013   -4.8158    9.5084 C.3       1 <0>         0.0961
     30 C21       -10.7064   -5.6934    8.2537 C.3       1 <0>        -0.1337
     31 C22       -11.9541   -5.0419    7.6137 C.3       1 <0>        -0.1539
     32 C23       -11.9384   -3.6200    8.1304 C.2       1 <0>         0.5201
     33 O4        -12.5788   -2.7032    7.6610 O.2       1 <0>        -0.5271
     34 H1         -3.2390    4.8403   -0.4941 H         1 <0>         0.0678
     35 H2         -2.1114    3.4421   -0.5061 H         1 <0>         0.0739
     36 H3         -1.4760    5.1065   -0.2764 H         1 <0>         0.0745
     37 H4         -4.4827    5.0559    1.4663 H         1 <0>         0.1217
     38 H5         -4.6832    4.7803    3.9269 H         1 <0>         0.1441
     39 H6         -3.2882    4.0446    6.3879 H         1 <0>         0.1461
     40 H7         -5.1879    2.7415    7.2539 H         1 <0>         0.1303
     41 H8         -2.6643   -0.6944    7.5927 H         1 <0>         0.1223
     42 H9         -0.7734    0.6149    6.7168 H         1 <0>         0.1347
     43 H10        -4.9494   -0.5904    8.7242 H         1 <0>         0.4273
     44 H11        -6.3162   -1.3862    9.5230 H         1 <0>         0.1276
     45 H12        -8.2370   -2.5407   10.5366 H         1 <0>         0.1279
     46 H13       -10.8927   -0.4487    7.9340 H         1 <0>         0.1337
     47 H14        -8.9868    0.7236    6.9131 H         1 <0>         0.1389
     48 H15       -10.6212   -2.5134   10.9666 H         1 <0>         0.0920
     49 H16       -11.7393   -1.6329    9.8706 H         1 <0>         0.0955
     50 H17        -9.4331   -4.6745    9.7299 H         1 <0>         0.0784
     51 H18       -11.0040   -5.2466   10.3868 H         1 <0>         0.0725
     52 H19        -9.8123   -5.6354    7.6155 H         1 <0>         0.0830
     53 H20       -10.8717   -6.7371    8.5593 H         1 <0>         0.0913
     54 H21       -11.8680   -5.0833    6.5179 H         1 <0>         0.1039
     55 H22       -12.8557   -5.5861    7.9315 H         1 <0>         0.1062
@<TRIPOS>BOND
     1    1    2 1
     2    1   34 1
     3    1   35 1
     4    1   36 1
     5    2    7 ar
     6    2    3 ar
     7    3    4 ar
     8    3   37 1
     9    4    5 ar
    10    4   38 1
    11    5    6 ar
    12    6    7 ar
    13    6    8 1
    14    8    9 1
    15    9   10 2
    16    9   11 2
    17    9   12 1
    18   12   17 ar
    19   12   13 ar
    20   13   14 ar
    21   13   39 1
    22   14   15 ar
    23   14   40 1
    24   15   16 ar
    25   15   18 1
    26   16   17 ar
    27   16   41 1
    28   17   42 1
    29   18   19 am
    30   18   43 1
    31   19   20 2
    32   19   21 1
    33   21   26 ar
    34   21   22 ar
    35   22   23 ar
    36   22   44 1
    37   23   24 ar
    38   23   45 1
    39   24   25 ar
    40   24   27 1
    41   25   26 ar
    42   25   46 1
    43   26   47 1
    44   27   28 1
    45   27   48 1
    46   27   49 1
    47   28   32 am
    48   28   29 1
    49   29   30 1
    50   29   50 1
    51   29   51 1
    52   30   31 1
    53   30   52 1
    54   30   53 1
    55   31   32 1
    56   31   54 1
    57   31   55 1
    58   32   33 2
@<TRIPOS>MOLECULE
ZINC38256612
   55    59     0     0     0
SMALL
USER_CHARGES

@<TRIPOS>ATOM
      1 C1          2.8861    2.5580   -5.0556 C.3       1 <0>        -0.1724
      2 C2          2.1758    2.0395   -3.8036 C.3       1 <0>         0.0762
      3 H1          1.1228    2.3207   -3.8146 H         1 <0>         0.1136
      4 C3          2.3320    0.5053   -3.6809 C.3       1 <0>        -0.1037
      5 C4          3.5659    0.3854   -2.8070 C.ar      1 <0>        -0.1889
      6 C5          4.4036   -0.6682   -2.5381 C.ar      1 <0>        -0.0235
      7 C6          5.4945   -0.4893   -1.6807 C.ar      1 <0>        -0.1668
      8 C7          5.7190    0.7656   -1.1059 C.ar      1 <0>        -0.0296
      9 C8          4.8718    1.8126   -1.3793 C.ar      1 <0>        -0.1528
     10 C9          3.7803    1.6352   -2.2320 C.ar      1 <0>         0.1189
     11 O1          2.8203    2.5260   -2.6144 O.3       1 <0>        -0.3010
     12 C10         6.4015   -1.6159   -1.3856 C.2       1 <0>         0.5083
     13 C11         7.4710   -1.4561   -0.3952 C.2       1 <0>        -0.5085
     14 C12         7.2991   -1.2644    1.0936 C.3       1 <0>         0.2581
     15 H2          6.7367   -0.3520    1.2916 H         1 <0>         0.0820
     16 N1          8.6523   -1.1540    1.6508 N.am      1 <0>        -0.6103
     17 C13         9.5280   -1.2640    0.6353 C.2       1 <0>         0.5139
     18 O2         10.7367   -1.2164    0.7486 O.2       1 <0>        -0.5234
     19 C14         8.8024   -1.4576   -0.6376 C.2       1 <0>         0.2690
     20 O3          9.3778   -1.6096   -1.8527 O.3       1 <0>        -0.6435
     21 C15         8.9899   -0.9585    3.0630 C.3       1 <0>         0.1719
     22 C16         9.1442   -2.2996    3.7328 C.ar      1 <0>        -0.0623
     23 C17         8.0570   -2.9291    4.3196 C.ar      1 <0>        -0.1530
     24 C18         8.2366   -4.1585    4.9248 C.ar      1 <0>         0.0942
     25 N2          9.4240   -4.7318    4.9483 N.ar      1 <0>        -0.4792
     26 C19        10.4798   -4.1625    4.4005 C.ar      1 <0>         0.0943
     27 C20        10.3754   -2.9360    3.7720 C.ar      1 <0>        -0.1473
     28 C21         6.5884   -2.4519    1.6902 C.ar      1 <0>        -0.0200
     29 C22         7.2152   -3.6832    1.7321 C.ar      1 <0>        -0.0760
     30 C23         6.5633   -4.7724    2.2794 C.ar      1 <0>        -0.0514
     31 C24         5.2847   -4.6302    2.7852 C.ar      1 <0>        -0.0562
     32 C25         4.6582   -3.3986    2.7442 C.ar      1 <0>        -0.0571
     33 C26         5.3118   -2.3084    2.2008 C.ar      1 <0>        -0.1194
     34 N3          4.5862   -5.7967    3.3703 N.pl3     1 <0>         0.0402
     35 O4          5.1340   -6.8739    3.4059 O.2       1 <0>        -0.1662
     36 O5          3.4680   -5.6722    3.8127 O.3       1 <0>        -0.1708
     37 O6          6.2617   -2.6773   -1.9643 O.2       1 <0>        -0.4732
     38 H3          3.9386    2.2772   -5.0188 H         1 <0>         0.0649
     39 H4          2.4246    2.1224   -5.9418 H         1 <0>         0.0741
     40 H5          2.8010    3.6438   -5.0982 H         1 <0>         0.0668
     41 H6          1.4639    0.0632   -3.1920 H         1 <0>         0.0890
     42 H7          2.5006    0.0514   -4.6574 H         1 <0>         0.0912
     43 H8          4.2211   -1.6331   -2.9877 H         1 <0>         0.1307
     44 H9          6.5604    0.9123   -0.4449 H         1 <0>         0.1429
     45 H10         5.0514    2.7789   -0.9317 H         1 <0>         0.1291
     46 H11         9.9254   -0.4044    3.1396 H         1 <0>         0.0959
     47 H12         8.1941   -0.3973    3.5525 H         1 <0>         0.0901
     48 H13         7.0823   -2.4643    4.3043 H         1 <0>         0.1276
     49 H14         7.3949   -4.6554    5.3842 H         1 <0>         0.1447
     50 H15        11.4364   -4.6623    4.4399 H         1 <0>         0.1547
     51 H16        11.2427   -2.4771    3.3209 H         1 <0>         0.1386
     52 H17         8.2141   -3.7943    1.3369 H         1 <0>         0.1360
     53 H18         7.0527   -5.7346    2.3114 H         1 <0>         0.1453
     54 H19         3.6591   -3.2875    3.1390 H         1 <0>         0.1491
     55 H20         4.8238   -1.3454    2.1721 H         1 <0>         0.1454
@<TRIPOS>BOND
     1    1    2 1
     2    1   38 1
     3    1   39 1
     4    1   40 1
     5    2    3 1
     6    2   11 1
     7    2    4 1
     8    4    5 1
     9    4   41 1
    10    4   42 1
    11    5   10 ar
    12    5    6 ar
    13    6    7 ar
    14    6   43 1
    15    7    8 ar
    16    7   12 1
    17    8    9 ar
    18    8   44 1
    19    9   10 ar
    20    9   45 1
    21   10   11 1
    22   12   13 1
    23   12   37 2
    24   13   19 2
    25   13   14 1
    26   14   16 1
    27   14   28 1
    28   14   15 1
    29   16   21 1
    30   16   17 am
    31   17   18 2
    32   17   19 1
    33   19   20 1
    34   21   22 1
    35   21   46 1
    36   21   47 1
    37   22   27 ar
    38   22   23 ar
    39   23   24 ar
    40   23   48 1
    41   24   25 ar
    42   24   49 1
    43   25   26 ar
    44   26   27 ar
    45   26   50 1
    46   27   51 1
    47   28   33 ar
    48   28   29 ar
    49   29   30 ar
    50   29   52 1
    51   30   31 ar
    52   30   53 1
    53   31   32 ar
    54   31   34 1
    55   32   33 ar
    56   32   54 1
    57   33   55 1
    58   34   35 2
    59   34   36 1
@<TRIPOS>MOLECULE
ZINC40176124
   53    56     0     0     0
SMALL
USER_CHARGES

@<TRIPOS>ATOM
      1 C1          0.0113    1.5425    0.2049 C.3       1 <0>        -0.0289
      2 C2          0.0302    0.0360    0.1724 C.2       1 <0>        -0.0388
      3 N1          0.0436   -0.7886   -0.8551 N.2       1 <0>        -0.2331
      4 N2          0.0592   -2.0415   -0.7114 N.2       1 <0>        -0.4364
      5 C3          0.0630   -2.6076    0.4882 C.2       1 <0>         0.4273
      6 S1          0.0487   -1.1437    1.5192 S.3       1 <0>        -0.1422
      7 N3          0.0787   -3.9486    0.8422 N.2       1 <0>        -1.0176
      8 S2          0.0969   -5.1151   -0.3331 S.o2      1 <0>         2.6416
      9 O1         -1.1475   -5.0259   -1.0132 O.2       1 <0>        -1.0037
     10 O2          1.3430   -4.9947   -1.0055 O.2       1 <0>        -1.0018
     11 C4          0.1140   -6.6766    0.4830 C.ar      1 <0>        -0.6406
     12 C5          1.3192   -7.2704    0.8114 C.ar      1 <0>        -0.0019
     13 C6          1.3321   -8.4943    1.4494 C.ar      1 <0>        -0.1716
     14 C7          0.1351   -9.1287    1.7622 C.ar      1 <0>         0.1931
     15 C8         -1.0722   -8.5319    1.4359 C.ar      1 <0>        -0.1404
     16 C9         -1.0764   -7.3022    0.7984 C.ar      1 <0>         0.0013
     17 C10        -2.3879   -9.1847    1.7685 C.3       1 <0>        -0.0774
     18 C11        -2.2004  -10.6854    1.9898 C.3       1 <0>        -0.1346
     19 C12        -1.0660  -10.9002    3.0002 C.3       1 <0>         0.0962
     20 N4          0.1702  -10.3735    2.4058 N.am      1 <0>        -0.5520
     21 C13         1.3184  -11.0755    2.4779 C.2       1 <0>         0.5150
     22 O3          2.3052  -10.6861    1.8900 O.2       1 <0>        -0.4798
     23 C14         1.3761  -12.3444    3.2888 C.3       1 <0>         0.0452
     24 O4          2.7179  -12.8355    3.3100 O.3       1 <0>        -0.2774
     25 C15         2.9446  -13.9826    4.0044 C.ar      1 <0>         0.0992
     26 C16         1.8974  -14.6243    4.6462 C.ar      1 <0>        -0.1747
     27 C17         2.1295  -15.7905    5.3512 C.ar      1 <0>        -0.1172
     28 C18         3.4052  -16.3191    5.4184 C.ar      1 <0>        -0.1158
     29 C19         4.4544  -15.6837    4.7808 C.ar      1 <0>        -0.1735
     30 C20         4.2276  -14.5177    4.0673 C.ar      1 <0>         0.1055
     31 O5          5.2575  -13.8947    3.4345 O.3       1 <0>        -0.3018
     32 C21         6.5470  -14.5010    3.5421 C.3       1 <0>         0.0260
     33 H1          1.0344    1.9186    0.2099 H         1 <0>         0.0703
     34 H2         -0.5097    1.9184   -0.6757 H         1 <0>         0.0794
     35 H3         -0.5043    1.8801    1.1039 H         1 <0>         0.0708
     36 H4          2.2488   -6.7772    0.5686 H         1 <0>         0.1420
     37 H5          2.2725   -8.9595    1.7056 H         1 <0>         0.1697
     38 H6         -2.0147   -6.8325    0.5428 H         1 <0>         0.1417
     39 H7         -2.7933   -8.7353    2.6750 H         1 <0>         0.0812
     40 H8         -3.0858   -9.0267    0.9463 H         1 <0>         0.0854
     41 H9         -3.1231  -11.1150    2.3799 H         1 <0>         0.0893
     42 H10        -1.9434  -11.1644    1.0450 H         1 <0>         0.0748
     43 H11        -1.2883  -10.3659    3.9239 H         1 <0>         0.0851
     44 H12        -0.9521  -11.9644    3.2066 H         1 <0>         0.0904
     45 H13         1.0480  -12.1396    4.3079 H         1 <0>         0.0963
     46 H14         0.7225  -13.0924    2.8401 H         1 <0>         0.0967
     47 H15         0.9000  -14.2131    4.5958 H         1 <0>         0.1345
     48 H16         1.3124  -16.2896    5.8510 H         1 <0>         0.1283
     49 H17         3.5825  -17.2302    5.9705 H         1 <0>         0.1275
     50 H18         5.4501  -16.0984    4.8352 H         1 <0>         0.1361
     51 H19         6.8371  -14.5541    4.5915 H         1 <0>         0.0547
     52 H20         6.5117  -15.5068    3.1236 H         1 <0>         0.0545
     53 H21         7.2759  -13.9046    2.9934 H         1 <0>         0.1023
@<TRIPOS>BOND
     1    1    2 1
     2    1   33 1
     3    1   34 1
     4    1   35 1
     5    2    6 1
     6    2    3 2
     7    3    4 1
     8    4    5 2
     9    5    6 1
    10    5    7 1
    11    7    8 1
    12    8    9 2
    13    8   10 2
    14    8   11 1
    15   11   16 ar
    16   11   12 ar
    17   12   13 ar
    18   12   36 1
    19   13   14 ar
    20   13   37 1
    21   14   20 1
    22   14   15 ar
    23   15   16 ar
    24   15   17 1
    25   16   38 1
    26   17   18 1
    27   17   39 1
    28   17   40 1
    29   18   19 1
    30   18   41 1
    31   18   42 1
    32   19   20 1
    33   19   43 1
    34   19   44 1
    35   20   21 am
    36   21   22 2
    37   21   23 1
    38   23   24 1
    39   23   45 1
    40   23   46 1
    41   24   25 1
    42   25   30 ar
    43   25   26 ar
    44   26   27 ar
    45   26   47 1
    46   27   28 ar
    47   27   48 1
    48   28   29 ar
    49   28   49 1
    50   29   30 ar
    51   29   50 1
    52   30   31 1
    53   31   32 1
    54   32   51 1
    55   32   52 1
    56   32   53 1
@<TRIPOS>MOLECULE
ZINC13802043
   56    59     0     0     0
SMALL
USER_CHARGES

@<TRIPOS>ATOM
      1 C1          4.8444    0.8198    1.1898 C.3       1 <0>        -0.1511
      2 C2          4.6892   -0.6724    0.8895 C.3       1 <0>         0.0526
      3 O1          3.4832   -0.8874    0.1538 O.3       1 <0>        -0.3168
      4 C3          3.1934   -2.1689   -0.1956 C.ar      1 <0>         0.1298
      5 C4          4.0505   -3.1975    0.1680 C.ar      1 <0>        -0.2004
      6 C5          3.7569   -4.4992   -0.1870 C.ar      1 <0>        -0.0566
      7 C6          2.6036   -4.7786   -0.9075 C.ar      1 <0>         0.1221
      8 C7          1.7461   -3.7491   -1.2707 C.ar      1 <0>        -0.0573
      9 C8          2.0379   -2.4483   -0.9107 C.ar      1 <0>        -0.1436
     10 N1          2.3051   -6.1009   -1.2689 N.am      1 <0>        -0.5231
     11 C9          2.7560   -6.5896   -2.4426 C.2       1 <0>         0.5624
     12 O2          3.4192   -5.8946   -3.1910 O.2       1 <0>        -0.5430
     13 C10         2.4320   -7.9746   -2.7991 C.2       1 <0>        -0.4335
     14 C11         2.8962   -8.5578   -4.0617 C.2       1 <0>         0.2541
     15 N2          2.5965   -9.7928   -4.3594 N.2       1 <0>        -0.4669
     16 C12         3.0306  -10.3382   -5.5402 C.2       1 <0>        -0.0778
     17 C13         2.7923  -11.6037   -5.9850 C.2       1 <0>         0.1519
     18 N3          3.3939  -11.7568   -7.2015 N.pl3     1 <0>        -0.4071
     19 N4          4.0370  -10.5659   -7.5554 N.am      1 <0>        -0.3724
     20 C14         3.8360   -9.6670   -6.5697 C.2       1 <0>         0.5014
     21 O3          4.2453   -8.5210   -6.5381 O.2       1 <0>        -0.5232
     22 C15         4.7598  -10.3437   -8.7317 C.ar      1 <0>         0.1596
     23 C16         6.0283   -9.7810   -8.6733 C.ar      1 <0>        -0.1075
     24 C17         6.7398   -9.5633   -9.8369 C.ar      1 <0>        -0.0998
     25 C18         6.1903   -9.9044  -11.0592 C.ar      1 <0>        -0.1275
     26 C19         4.9274  -10.4643  -11.1208 C.ar      1 <0>        -0.1047
     27 C20         4.2132  -10.6904   -9.9606 C.ar      1 <0>        -0.1337
     28 C21         3.3699  -12.9783   -8.0099 C.3       1 <0>         0.1092
     29 C22         1.9986  -12.6577   -5.2567 C.3       1 <0>        -0.0828
     30 C23         1.6692   -8.7210   -1.9004 C.2       1 <0>         0.5057
     31 N5          1.2579   -8.1379   -0.7349 N.am      1 <0>        -0.6529
     32 C24         1.5781   -6.8681   -0.4396 C.2       1 <0>         0.7096
     33 O4          1.1933   -6.3948    0.6120 O.2       1 <0>        -0.5718
     34 O5          1.3423   -9.9984   -2.1780 O.3       1 <0>        -0.6039
     35 H1          4.8857    1.3764    0.2535 H         1 <0>         0.0654
     36 H2          3.9935    1.1623    1.7788 H         1 <0>         0.0651
     37 H3          5.7643    0.9838    1.7509 H         1 <0>         0.0761
     38 H4          5.5400   -1.0149    0.3005 H         1 <0>         0.0622
     39 H5          4.6478   -1.2290    1.8258 H         1 <0>         0.0618
     40 H6          4.9476   -2.9800    0.7286 H         1 <0>         0.1303
     41 H7          4.4245   -5.2997    0.0955 H         1 <0>         0.1267
     42 H8          0.8488   -3.9659   -1.8313 H         1 <0>         0.1315
     43 H9          1.3686   -1.6479   -1.1894 H         1 <0>         0.1344
     44 H10         3.4862   -7.9655   -4.7454 H         1 <0>         0.1097
     45 H11         6.4578   -9.5137   -7.7191 H         1 <0>         0.1303
     46 H12         7.7262   -9.1258   -9.7922 H         1 <0>         0.1300
     47 H13         6.7485   -9.7328  -11.9676 H         1 <0>         0.1256
     48 H14         4.5009  -10.7293  -12.0770 H         1 <0>         0.1274
     49 H15         3.2287  -11.1319  -10.0091 H         1 <0>         0.1247
     50 H16         2.8271  -13.7575   -7.4748 H         1 <0>         0.1006
     51 H17         2.8736  -12.7762   -8.9591 H         1 <0>         0.0639
     52 H18         4.3911  -13.3101   -8.1973 H         1 <0>         0.0653
     53 H19         1.6390  -12.2528   -4.3108 H         1 <0>         0.1135
     54 H20         1.1490  -12.9604   -5.8688 H         1 <0>         0.0686
     55 H21         2.6338  -13.5222   -5.0639 H         1 <0>         0.0685
     56 H22         0.7274   -8.6528   -0.1070 H         1 <0>         0.4172
@<TRIPOS>BOND
     1    1    2 1
     2    1   35 1
     3    1   36 1
     4    1   37 1
     5    2    3 1
     6    2   38 1
     7    2   39 1
     8    3    4 1
     9    4    9 ar
    10    4    5 ar
    11    5    6 ar
    12    5   40 1
    13    6    7 ar
    14    6   41 1
    15    7    8 ar
    16    7   10 1
    17    8    9 ar
    18    8   42 1
    19    9   43 1
    20   10   32 am
    21   10   11 am
    22   11   12 2
    23   11   13 1
    24   13   14 1
    25   13   30 2
    26   14   15 2
    27   14   44 1
    28   15   16 1
    29   16   20 1
    30   16   17 2
    31   17   18 1
    32   17   29 1
    33   18   19 1
    34   18   28 1
    35   19   20 am
    36   19   22 1
    37   20   21 2
    38   22   27 ar
    39   22   23 ar
    40   23   24 ar
    41   23   45 1
    42   24   25 ar
    43   24   46 1
    44   25   26 ar
    45   25   47 1
    46   26   27 ar
    47   26   48 1
    48   27   49 1
    49   28   50 1
    50   28   51 1
    51   28   52 1
    52   29   53 1
    53   29   54 1
    54   29   55 1
    55   30   31 1
    56   30   34 1
    57   31   32 am
    58   31   56 1
    59   32   33 2
@<TRIPOS>MOLECULE
ZINC13220230
   48    51     0     0     0
SMALL
USER_CHARGES
2-[3-[2-oxo-2-(4-pyrimidin-2-ylpiperazin-1-yl)ethyl]sulfanyl-5-(2-thienyl)-1,2,4-triazol-4-yl]acetic acid
@<TRIPOS>ATOM
      1 C1         -1.0805    1.9149    0.0167 C.2       1 <0>        -0.1561
      2 C2         -0.8658    3.2748    0.0279 C.2       1 <0>        -0.1169
      3 C3          0.4258    3.7375    0.0181 C.2       1 <0>        -0.0779
      4 S1          1.3606    2.2165    0.0010 S.3       1 <0>         0.0910
      5 C4         -0.0126    1.0758    0.0080 C.2       1 <0>        -0.1790
      6 C5          0.9137    5.1260    0.0205 C.2       1 <0>         0.2642
      7 N1          0.2125    6.2009    0.3066 N.2       1 <0>        -0.2652
      8 N2          0.9534    7.2464    0.2104 N.2       1 <0>        -0.2999
      9 C6          2.1722    6.9065   -0.1424 C.2       1 <0>         0.1556
     10 N3          2.1929    5.5454   -0.2707 N.pl3     1 <0>        -0.4164
     11 C7          3.3360    4.7083   -0.6433 C.3       1 <0>         0.0487
     12 C8          3.3744    4.5483   -2.1412 C.2       1 <0>         0.4602
     13 O1          2.5332    5.0791   -2.8273 O.co2     1 <0>        -0.6092
     14 S2          3.5297    8.0006   -0.3966 S.3       1 <0>         0.0920
     15 C9          2.7294    9.5836   -0.0362 C.3       1 <0>        -0.1525
     16 C10         3.7296   10.6997   -0.1942 C.2       1 <0>         0.5403
     17 O2          4.8711   10.4495   -0.5186 O.2       1 <0>        -0.5166
     18 N4          3.3555   11.9758    0.0249 N.am      1 <0>        -0.6146
     19 C11         1.9749   12.3017    0.4132 C.3       1 <0>         0.1080
     20 C12         2.0235   13.1901    1.6664 C.3       1 <0>         0.0525
     21 N5          2.8849   14.3508    1.4043 N.pl3     1 <0>        -0.4596
     22 C13         4.2707   13.9383    1.1450 C.3       1 <0>         0.0573
     23 C14         4.3157   13.0800   -0.1237 C.3       1 <0>         0.1153
     24 C15         2.8246   15.2588    2.4472 C.ar      1 <0>         0.4941
     25 N6          3.9450   15.6223    3.0538 N.ar      1 <0>        -0.5519
     26 C16         3.9229   16.4921    4.0502 C.ar      1 <0>         0.1745
     27 C17         2.7079   17.0150    4.4644 C.ar      1 <0>        -0.2628
     28 C18         1.5546   16.6089    3.8116 C.ar      1 <0>         0.1754
     29 N7          1.6472   15.7397    2.8188 N.ar      1 <0>        -0.5302
     30 H1         -2.0858    1.5202    0.0184 H         1 <0>         0.1378
     31 H2         -1.6976    3.9637    0.0393 H         1 <0>         0.1430
     32 H3          0.0021   -0.0041    0.0020 H         1 <0>         0.1884
     33 H4          4.2580    5.1807   -0.3045 H         1 <0>         0.1080
     34 H5          3.2367    3.7287   -0.1757 H         1 <0>         0.1008
     35 H6          1.9009    9.7375   -0.7275 H         1 <0>         0.1280
     36 H7          2.3525    9.5756    0.9866 H         1 <0>         0.1241
     37 H8          1.4825   12.8361   -0.3993 H         1 <0>         0.0887
     38 H9          1.4303   11.3837    0.6344 H         1 <0>         0.1038
     39 H10         2.4258   12.6204    2.5041 H         1 <0>         0.0532
     40 H11         1.0170   13.5313    1.9086 H         1 <0>         0.1094
     41 H12         4.6417   13.3582    1.9899 H         1 <0>         0.0597
     42 H13         4.8938   14.8221    1.0085 H         1 <0>         0.1026
     43 H14         5.3195   12.6769   -0.2576 H         1 <0>         0.1069
     44 H15         4.0440   13.6878   -0.9868 H         1 <0>         0.0801
     45 H16         4.8399   16.7876    4.5381 H         1 <0>         0.1687
     46 H17         2.6609   17.7237    5.2779 H         1 <0>         0.1474
     47 H18         0.5921   16.9976    4.1097 H         1 <0>         0.1710
     48 O3          4.3431    3.8162   -2.7134 O.co2     1 <0>        -0.7422
@<TRIPOS>BOND
     1    1    5 2
     2    1    2 1
     3    1   30 1
     4    2    3 2
     5    2   31 1
     6    3    4 1
     7    3    6 1
     8    4    5 1
     9    5   32 1
    10    6   10 1
    11    6    7 2
    12    7    8 1
    13    8    9 2
    14    9   10 1
    15    9   14 1
    16   10   11 1
    17   11   12 1
    18   11   33 1
    19   11   34 1
    20   12   13 2
    21   12   48 1
    22   14   15 1
    23   15   16 1
    24   15   35 1
    25   15   36 1
    26   16   17 2
    27   16   18 am
    28   18   23 1
    29   18   19 1
    30   19   20 1
    31   19   37 1
    32   19   38 1
    33   20   21 1
    34   20   39 1
    35   20   40 1
    36   21   22 1
    37   21   24 1
    38   22   23 1
    39   22   41 1
    40   22   42 1
    41   23   43 1
    42   23   44 1
    43   24   29 ar
    44   24   25 ar
    45   25   26 ar
    46   26   27 ar
    47   26   45 1
    48   27   28 ar
    49   27   46 1
    50   28   29 ar
    51   28   47 1
@<TRIPOS>MOLECULE
ZINC09433826
   47    50     0     0     0
SMALL
USER_CHARGES
(5R)-1-(2-furylmethyl)-3-hydroxy-4-(3-nitrobenzoyl)-5-(4-nitrophenyl)-5H-pyrrol-2-one
@<TRIPOS>ATOM
      1 C1          3.5149    3.7721   -3.1554 C.ar      1 <0>        -0.1307
      2 C2          2.7692    3.2146   -2.1375 C.ar      1 <0>        -0.0155
      3 C3          2.5496    3.9353   -0.9619 C.ar      1 <0>        -0.1356
      4 C4          3.0829    5.2192   -0.8274 C.ar      1 <0>        -0.0123
      5 C5          3.8309    5.7624   -1.8508 C.ar      1 <0>        -0.0585
      6 C6          4.0447    5.0424   -3.0135 C.ar      1 <0>        -0.0427
      7 N1          4.4016    7.1206   -1.7079 N.pl3     1 <0>         0.0317
      8 O1          5.0585    7.6035   -2.6128 O.2       1 <0>        -0.1663
      9 O2          4.2143    7.7554   -0.6854 O.3       1 <0>        -0.1598
     10 C7          1.7510    3.3445    0.1332 C.2       1 <0>         0.5041
     11 O3          1.4739    4.0114    1.1123 O.2       1 <0>        -0.4553
     12 C8          1.2931    1.9551    0.0393 C.2       1 <0>        -0.5138
     13 C9          0.0109    1.5325   -0.0591 C.2       1 <0>         0.2791
     14 C10        -0.0095    0.0561   -0.1309 C.2       1 <0>         0.5132
     15 O4         -1.0120   -0.6237   -0.2249 O.2       1 <0>        -0.5135
     16 N2          1.2464   -0.4235   -0.0774 N.am      1 <0>        -0.6111
     17 C11         2.1614    0.7187    0.0330 C.3       1 <0>         0.2623
     18 H1          2.8720    0.7141   -0.8067 H         1 <0>         0.0782
     19 C12         2.9472    0.6309    1.3159 C.ar      1 <0>        -0.0271
     20 C13         2.3043    0.3247    2.5007 C.ar      1 <0>        -0.0887
     21 C14         3.0260    0.2390    3.6766 C.ar      1 <0>        -0.0522
     22 C15         4.3889    0.4702    3.6695 C.ar      1 <0>        -0.0532
     23 C16         5.0309    0.7820    2.4856 C.ar      1 <0>        -0.0536
     24 C17         4.3101    0.8621    1.3088 C.ar      1 <0>        -0.1171
     25 N3          5.1608    0.3834    4.9295 N.pl3     1 <0>         0.0334
     26 O5          6.3617    0.5868    4.9231 O.2       1 <0>        -0.1693
     27 O6          4.5951    0.1087    5.9726 O.3       1 <0>        -0.1665
     28 C18         1.6323   -1.8361   -0.1210 C.3       1 <0>         0.2088
     29 C19         1.8513   -2.2530   -1.5526 C.2       1 <0>        -0.0256
     30 C20         3.0149   -2.1810   -2.2236 C.2       1 <0>        -0.1990
     31 C21         2.7684   -2.6752   -3.5251 C.2       1 <0>        -0.2182
     32 C22         1.4670   -3.0118   -3.5741 C.2       1 <0>        -0.0373
     33 O7          0.9165   -2.7539   -2.3765 O.3       1 <0>        -0.1644
     34 O8         -1.0783    2.3341   -0.0921 O.3       1 <0>        -0.6338
     35 H2          3.6858    3.2156   -4.0651 H         1 <0>         0.1500
     36 H3          2.3560    2.2231   -2.2497 H         1 <0>         0.1539
     37 H4          2.9134    5.7837    0.0776 H         1 <0>         0.1599
     38 H5          4.6280    5.4740   -3.8134 H         1 <0>         0.1526
     39 H6          1.2388    0.1484    2.5070 H         1 <0>         0.1442
     40 H7          2.5245   -0.0050    4.6014 H         1 <0>         0.1512
     41 H8          6.0956    0.9626    2.4801 H         1 <0>         0.1503
     42 H9          4.8117    1.1057    0.3839 H         1 <0>         0.1445
     43 H10         2.5619   -1.9800    0.4491 H         1 <0>         0.1092
     44 H11         0.8326   -2.4485    0.3210 H         1 <0>         0.1012
     45 H12         3.9572   -1.8177   -1.8409 H         1 <0>         0.1467
     46 H13         3.4862   -2.7616   -4.3274 H         1 <0>         0.1466
     47 H14         0.9521   -3.4206   -4.4310 H         1 <0>         0.1999
@<TRIPOS>BOND
     1    1    6 ar
     2    1    2 ar
     3    1   35 1
     4    2    3 ar
     5    2   36 1
     6    3    4 ar
     7    3   10 1
     8    4    5 ar
     9    4   37 1
    10    5    6 ar
    11    5    7 1
    12    6   38 1
    13    7    8 2
    14    7    9 1
    15   10   11 2
    16   10   12 1
    17   12   17 1
    18   12   13 2
    19   13   14 1
    20   13   34 1
    21   14   15 2
    22   14   16 am
    23   16   17 1
    24   16   28 1
    25   17   18 1
    26   17   19 1
    27   19   24 ar
    28   19   20 ar
    29   20   21 ar
    30   20   39 1
    31   21   22 ar
    32   21   40 1
    33   22   23 ar
    34   22   25 1
    35   23   24 ar
    36   23   41 1
    37   24   42 1
    38   25   26 2
    39   25   27 1
    40   28   29 1
    41   28   43 1
    42   28   44 1
    43   29   33 1
    44   29   30 2
    45   30   31 1
    46   30   45 1
    47   31   32 2
    48   31   46 1
    49   32   33 1
    50   32   47 1
@<TRIPOS>MOLECULE
ZINC33813936
   52    56     0     0     0
SMALL
USER_CHARGES

@<TRIPOS>ATOM
      1 C1         -2.7467    0.8915   -2.2929 C.3       1 <0>        -0.0875
      2 C2         -2.3816   -0.5617   -2.1320 C.2       1 <0>         0.1650
      3 C3         -1.1213   -1.1117   -2.3289 C.2       1 <0>        -0.1480
      4 N1         -1.2422   -2.4655   -2.0731 N.pl3     1 <0>        -0.3288
      5 C4         -0.3468   -3.4879   -2.1061 C.2       1 <0>         0.0804
      6 C5         -0.7304   -4.7504   -1.8051 C.2       1 <0>        -0.1568
      7 C6         -2.0607   -5.0161   -1.4548 C.2       1 <0>        -0.0919
      8 C7         -2.9650   -3.9955   -1.4194 C.2       1 <0>        -0.0924
      9 C8         -2.5464   -2.6917   -1.7355 C.2       1 <0>         0.2371
     10 N2         -3.2038   -1.5324   -1.7737 N.2       1 <0>        -0.5044
     11 C9          0.0549   -0.4223   -2.7152 C.2       1 <0>         0.5507
     12 O1          1.0985   -1.0348   -2.8674 O.2       1 <0>        -0.4887
     13 C10         0.0174    1.0291   -2.9321 C.2       1 <0>        -0.4755
     14 C11        -0.2426    1.6644   -4.0979 C.2       1 <0>         0.2657
     15 C12        -0.1816    3.1215   -3.8815 C.2       1 <0>         0.5110
     16 O2         -0.3704    3.9619   -4.7389 O.2       1 <0>        -0.4778
     17 N3          0.1130    3.3841   -2.5953 N.am      1 <0>        -0.5019
     18 C13         0.2551    2.1020   -1.8950 C.3       1 <0>         0.2727
     19 H1         -0.4841    2.0235   -1.0979 H         1 <0>         0.0926
     20 C14         1.6456    1.9759   -1.3279 C.ar      1 <0>        -0.1135
     21 C15         1.8406    1.4636   -0.0541 C.ar      1 <0>        -0.0582
     22 C16         3.1373    1.3661    0.4264 C.ar      1 <0>        -0.1722
     23 C17         4.1853    1.7797   -0.3743 C.ar      1 <0>         0.0893
     24 N4          3.9623    2.2625   -1.5809 N.ar      1 <0>        -0.4835
     25 C18         2.7429    2.3640   -2.0728 C.ar      1 <0>         0.1263
     26 C19         0.2518    4.6374   -2.0327 C.2       1 <0>         0.3255
     27 N5          0.5456    4.9432   -0.7803 N.2       1 <0>        -0.5676
     28 C20         0.6453    6.1844   -0.3847 C.2       1 <0>         0.2098
     29 C21         0.4251    7.1606   -1.3551 C.2       1 <0>        -0.3868
     30 S1          0.0943    6.1368   -2.7805 S.3       1 <0>         0.2227
     31 C22         0.4590    8.5648   -1.2436 C.2       1 <0>         0.4475
     32 O3          0.7106    9.0833   -0.1741 O.2       1 <0>        -0.4728
     33 C23         0.1830    9.4235   -2.4509 C.3       1 <0>        -0.1973
     34 C24         0.9793    6.5408    1.0410 C.3       1 <0>        -0.0878
     35 O4         -0.5154    1.0576   -5.2778 O.3       1 <0>        -0.6357
     36 H2         -2.5068    1.4301   -1.3761 H         1 <0>         0.0761
     37 H3         -2.1832    1.3180   -3.1228 H         1 <0>         0.0985
     38 H4         -3.8141    0.9777   -2.4962 H         1 <0>         0.0732
     39 H5          0.6803   -3.2909   -2.3756 H         1 <0>         0.1735
     40 H6         -0.0099   -5.5544   -1.8352 H         1 <0>         0.1518
     41 H7         -2.3684   -6.0231   -1.2146 H         1 <0>         0.1428
     42 H8         -3.9933   -4.1877   -1.1513 H         1 <0>         0.1515
     43 H9          1.0022    1.1485    0.5493 H         1 <0>         0.1291
     44 H10         3.3262    0.9722    1.4141 H         1 <0>         0.1304
     45 H11         5.1984    1.7070   -0.0073 H         1 <0>         0.1499
     46 H12         2.5998    2.7595   -3.0676 H         1 <0>         0.1403
     47 H13        -0.8844    9.6361   -2.5091 H         1 <0>         0.0963
     48 H14         0.7357   10.3591   -2.3653 H         1 <0>         0.0884
     49 H15         0.4982    8.8963   -3.3513 H         1 <0>         0.0803
     50 H16         2.0607    6.6209    1.1517 H         1 <0>         0.0814
     51 H17         0.5164    7.4943    1.2951 H         1 <0>         0.0943
     52 H18         0.6023    5.7648    1.7073 H         1 <0>         0.0751
@<TRIPOS>BOND
     1    1    2 1
     2    1   36 1
     3    1   37 1
     4    1   38 1
     5    2   10 1
     6    2    3 2
     7    3    4 1
     8    3   11 1
     9    4    9 1
    10    4    5 1
    11    5    6 2
    12    5   39 1
    13    6    7 1
    14    6   40 1
    15    7    8 2
    16    7   41 1
    17    8    9 1
    18    8   42 1
    19    9   10 2
    20   11   12 2
    21   11   13 1
    22   13   18 1
    23   13   14 2
    24   14   15 1
    25   14   35 1
    26   15   16 2
    27   15   17 am
    28   17   18 1
    29   17   26 1
    30   18   19 1
    31   18   20 1
    32   20   25 ar
    33   20   21 ar
    34   21   22 ar
    35   21   43 1
    36   22   23 ar
    37   22   44 1
    38   23   24 ar
    39   23   45 1
    40   24   25 ar
    41   25   46 1
    42   26   30 1
    43   26   27 2
    44   27   28 1
    45   28   29 2
    46   28   34 1
    47   29   30 1
    48   29   31 1
    49   31   32 2
    50   31   33 1
    51   33   47 1
    52   33   48 1
    53   33   49 1
    54   34   50 1
    55   34   51 1
    56   34   52 1
@<TRIPOS>MOLECULE
ZINC39989909
   55    57     0     0     0
SMALL
USER_CHARGES

@<TRIPOS>ATOM
      1 C1          0.2672    0.4196    0.5363 C.3       1 <0>        -0.1628
      2 C2          0.0834   -0.9981   -0.0087 C.3       1 <0>         0.0743
      3 N1          0.8932   -1.1651   -1.2182 N.am      1 <0>        -0.4959
      4 C3          0.3503   -0.8781   -2.4292 C.2       1 <0>         0.5026
      5 C4          1.1054   -1.0302   -3.6039 C.2       1 <0>        -0.2373
      6 C5          2.4327   -1.4831   -3.5181 C.2       1 <0>         0.1292
      7 C6          2.9661   -1.7701   -2.2647 C.2       1 <0>        -0.1950
      8 C7          2.1632   -1.5949   -1.1089 C.2       1 <0>         0.5545
      9 O1          2.6259   -1.8397   -0.0086 O.2       1 <0>        -0.5259
     10 C8          4.3155   -2.2338   -2.1431 C.1       1 <0>         0.2855
     11 N2          5.3859   -2.6017   -2.0466 N.1       1 <0>        -0.4217
     12 C9          3.2651   -1.6556   -4.7625 C.3       1 <0>        -0.1507
     13 C10         0.5141   -0.7200   -4.9068 C.2       1 <0>         0.0916
     14 C11         0.2950   -1.7152   -5.8088 C.2       1 <0>        -0.2042
     15 C12        -0.2509   -1.6429   -7.1266 C.2       1 <0>         0.5447
     16 O2         -0.6019   -0.5783   -7.6026 O.2       1 <0>        -0.4566
     17 N3         -0.3631   -2.7661   -7.8141 N.am      1 <0>        -0.4834
     18 C13         0.0266   -3.9473   -7.2855 C.2       1 <0>         0.3039
     19 S1         -0.0277   -5.5073   -7.9885 S.2       1 <0>        -0.3422
     20 S2          0.6192   -3.4676   -5.6700 S.3       1 <0>         0.0323
     21 C14        -0.9187   -2.7302   -9.1692 C.3       1 <0>         0.0100
     22 C15         0.1949   -2.5241  -10.1634 C.2       1 <0>         0.4990
     23 O3          1.3460   -2.4171   -9.7759 O.co2     1 <0>        -0.6794
     24 O4         -0.0552   -2.4644  -11.3552 O.co2     1 <0>        -0.6773
     25 N4         -0.9391   -0.4388   -2.5058 N.pl3     1 <0>        -0.6498
     26 C16        -1.2567    0.8835   -3.0680 C.3       1 <0>         0.1022
     27 C17        -2.3552    0.7091   -4.1230 C.3       1 <0>         0.0633
     28 H1         -1.9577    0.1571   -4.9747 H         1 <0>         0.0751
     29 O5         -3.4462   -0.0164   -3.5510 O.3       1 <0>        -0.3644
     30 C18        -3.1129   -1.3428   -3.1346 C.3       1 <0>         0.0803
     31 H2         -4.0050   -1.8396   -2.7533 H         1 <0>         0.1174
     32 C19        -2.0538   -1.2758   -2.0343 C.3       1 <0>         0.0950
     33 C20        -2.5600   -2.1284   -4.3254 C.3       1 <0>        -0.2002
     34 C21        -2.8413    2.0837   -4.5867 C.3       1 <0>        -0.1449
     35 H3          1.3177    0.5830    0.7770 H         1 <0>         0.0666
     36 H4         -0.0498    1.1420   -0.2158 H         1 <0>         0.0608
     37 H5         -0.3352    0.5439    1.4362 H         1 <0>         0.0776
     38 H6          0.4005   -1.7205    0.7434 H         1 <0>         0.1051
     39 H7         -0.9670   -1.1615   -0.2494 H         1 <0>         0.1001
     40 H8          3.7233   -0.7030   -5.0281 H         1 <0>         0.1010
     41 H9          4.0446   -2.3950   -4.5785 H         1 <0>         0.0855
     42 H10         2.6293   -1.9938   -5.5808 H         1 <0>         0.0938
     43 H11         0.2518    0.2985   -5.1520 H         1 <0>         0.1579
     44 H12        -1.4240   -3.6728   -9.3798 H         1 <0>         0.1099
     45 H13        -1.6323   -1.9100   -9.2477 H         1 <0>         0.1015
     46 H14        -1.6098    1.5439   -2.2761 H         1 <0>         0.0835
     47 H15        -0.3666    1.3087   -3.5317 H         1 <0>         0.0942
     48 H16        -1.6912   -2.2798   -1.8137 H         1 <0>         0.0913
     49 H17        -2.4885   -0.8364   -1.1364 H         1 <0>         0.0806
     50 H18        -1.6775   -1.6221   -4.7165 H         1 <0>         0.0698
     51 H19        -2.2892   -3.1338   -4.0032 H         1 <0>         0.0721
     52 H20        -3.3195   -2.1889   -5.1050 H         1 <0>         0.0667
     53 H21        -2.0076    2.6371   -5.0188 H         1 <0>         0.0767
     54 H22        -3.6223    1.9589   -5.3367 H         1 <0>         0.0713
     55 H23        -3.2403    2.6344   -3.7348 H         1 <0>         0.0651
@<TRIPOS>BOND
     1    1    2 1
     2    1   35 1
     3    1   36 1
     4    1   37 1
     5    2    3 1
     6    2   38 1
     7    2   39 1
     8    3    8 am
     9    3    4 1
    10    4    5 2
    11    4   25 1
    12    5    6 1
    13    5   13 1
    14    6    7 2
    15    6   12 1
    16    7    8 1
    17    7   10 1
    18    8    9 2
    19   10   11 3
    20   12   40 1
    21   12   41 1
    22   12   42 1
    23   13   14 2
    24   13   43 1
    25   14   20 1
    26   14   15 1
    27   15   16 2
    28   15   17 am
    29   17   18 1
    30   17   21 1
    31   18   19 2
    32   18   20 1
    33   21   22 1
    34   21   44 1
    35   21   45 1
    36   22   23 2
    37   22   24 1
    38   25   32 1
    39   25   26 1
    40   26   27 1
    41   26   46 1
    42   26   47 1
    43   27   28 1
    44   27   29 1
    45   27   34 1
    46   29   30 1
    47   30   31 1
    48   30   32 1
    49   30   33 1
    50   32   48 1
    51   32   49 1
    52   33   50 1
    53   33   51 1
    54   33   52 1
    55   34   53 1
    56   34   54 1
    57   34   55 1
@<TRIPOS>MOLECULE
ZINC12577118
   50    53     0     0     0
SMALL
USER_CHARGES

@<TRIPOS>ATOM
      1 C1          1.0722   -0.4527   -0.7660 C.ar      1 <0>        -0.1439
      2 C2          2.2561    0.2585   -0.7779 C.ar      1 <0>        -0.0019
      3 C3          2.3763    1.4164   -0.0315 C.ar      1 <0>        -0.6362
      4 C4          1.3123    1.8662    0.7286 C.ar      1 <0>        -0.0024
      5 C5          0.1256    1.1598    0.7444 C.ar      1 <0>        -0.1686
      6 C6          0.0017   -0.0036   -0.0037 C.ar      1 <0>         0.1781
      7 N1         -1.1992   -0.7216    0.0101 N.am      1 <0>        -0.6717
      8 C7         -1.1825   -2.0648   -0.0990 C.2       1 <0>         0.5192
      9 O1         -0.1253   -2.6591   -0.1129 O.2       1 <0>        -0.5109
     10 C8         -2.4775   -2.8284   -0.2038 C.3       1 <0>        -0.1561
     11 C9         -2.1796   -4.3249   -0.3162 C.3       1 <0>         0.1149
     12 N2         -3.4385   -5.0672   -0.4180 N.am      1 <0>        -0.5915
     13 C10        -4.1186   -5.5319    0.6621 C.2       1 <0>         0.5408
     14 O2         -3.7142   -5.5989    1.8030 O.2       1 <0>        -0.4614
     15 C11        -5.4693   -5.9445    0.1610 C.3       1 <0>        -0.1316
     16 H1         -6.1474   -5.0912    0.1524 H         1 <0>         0.1271
     17 C12        -6.1382   -7.1411    0.8040 C.3       1 <0>        -0.0691
     18 C13        -7.2842   -7.5434   -0.1005 C.2       1 <0>        -0.1544
     19 C14        -7.3975   -7.1846   -1.3436 C.2       1 <0>        -0.1533
     20 C15        -6.3879   -6.3316   -2.0826 C.3       1 <0>        -0.0699
     21 C16        -5.1036   -6.3659   -1.2958 C.3       1 <0>        -0.1319
     22 H2         -4.6979   -7.3774   -1.3100 H         1 <0>         0.1273
     23 C17        -4.0414   -5.3522   -1.6015 C.2       1 <0>         0.5424
     24 O3         -3.7729   -4.8829   -2.6865 O.2       1 <0>        -0.4604
     25 S1          3.8887    2.3202   -0.0484 S.o2      1 <0>         2.6374
     26 O4          3.9280    3.0689    1.1587 O.2       1 <0>        -1.0111
     27 O5          4.9089    1.3981   -0.4064 O.2       1 <0>        -1.0098
     28 N3          3.7889    3.4186   -1.2837 N.2       1 <0>        -1.0314
     29 C18         4.8481    4.2764   -1.5356 C.2       1 <0>         0.4018
     30 N4          6.0021    4.3574   -0.9081 N.2       1 <0>        -0.6660
     31 C19         6.9170    5.2379   -1.2739 C.2       1 <0>         0.1006
     32 C20         6.6116    6.0461   -2.3173 C.2       1 <0>        -0.3465
     33 S2          4.9738    5.4625   -2.7230 S.3       1 <0>         0.0092
     34 H3          0.9775   -1.3547   -1.3524 H         1 <0>         0.1382
     35 H4          3.0889   -0.0902   -1.3705 H         1 <0>         0.1417
     36 H5          1.4094    2.7707    1.3107 H         1 <0>         0.1424
     37 H6         -0.7050    1.5114    1.3385 H         1 <0>         0.1305
     38 H7         -2.0437   -0.2526    0.0982 H         1 <0>         0.4124
     39 H8         -3.0811   -2.6439    0.6849 H         1 <0>         0.1015
     40 H9         -3.0230   -2.4991   -1.0882 H         1 <0>         0.1066
     41 H10        -1.5760   -4.5094   -1.2049 H         1 <0>         0.1032
     42 H11        -1.6341   -4.6542    0.5682 H         1 <0>         0.1060
     43 H12        -5.4271   -7.9626    0.8916 H         1 <0>         0.0867
     44 H13        -6.5187   -6.8703    1.7889 H         1 <0>         0.0912
     45 H14        -8.0586   -8.1707    0.3157 H         1 <0>         0.1138
     46 H15        -8.2699   -7.5171   -1.8865 H         1 <0>         0.1141
     47 H16        -6.2254   -6.7306   -3.0838 H         1 <0>         0.0915
     48 H17        -6.7435   -5.3030   -2.1438 H         1 <0>         0.0852
     49 H18         7.8659    5.3103   -0.7634 H         1 <0>         0.1456
     50 H19         7.1988    6.8262   -2.7789 H         1 <0>         0.1705
@<TRIPOS>BOND
     1    1    6 ar
     2    1    2 ar
     3    1   34 1
     4    2    3 ar
     5    2   35 1
     6    3    4 ar
     7    3   25 1
     8    4    5 ar
     9    4   36 1
    10    5    6 ar
    11    5   37 1
    12    6    7 1
    13    7    8 am
    14    7   38 1
    15    8    9 2
    16    8   10 1
    17   10   11 1
    18   10   39 1
    19   10   40 1
    20   11   12 1
    21   11   41 1
    22   11   42 1
    23   12   23 am
    24   12   13 am
    25   13   14 2
    26   13   15 1
    27   15   16 1
    28   15   21 1
    29   15   17 1
    30   17   18 1
    31   17   43 1
    32   17   44 1
    33   18   19 2
    34   18   45 1
    35   19   20 1
    36   19   46 1
    37   20   21 1
    38   20   47 1
    39   20   48 1
    40   21   22 1
    41   21   23 1
    42   23   24 2
    43   25   26 2
    44   25   27 2
    45   25   28 1
    46   28   29 1
    47   29   33 1
    48   29   30 2
    49   30   31 1
    50   31   32 2
    51   31   49 1
    52   32   33 1
    53   32   50 1
@<TRIPOS>MOLECULE
ZINC13178944
   58    61     0     0     0
SMALL
USER_CHARGES
1-ethyl-6-fluoro-7-[4-[(E)-3-(3-nitrophenyl)prop-2-enoyl]piperazin-1-yl]-4-oxo-quinoline-3-carboxylic acid
@<TRIPOS>ATOM
      1 C1         -3.1056   10.5704    6.2621 C.3       1 <0>        -0.1744
      2 C2         -4.2305    9.5386    6.3663 C.3       1 <0>         0.0892
      3 N1         -5.5084   10.1742    6.0357 N.pl3     1 <0>        -0.4961
      4 C3         -6.2687   10.6435    7.0338 C.2       1 <0>         0.1709
      5 C4         -7.4847   11.2546    6.8063 C.2       1 <0>        -0.2834
      6 C5         -7.9629   11.3956    5.4209 C.2       1 <0>         0.4161
      7 O1         -9.0302   11.9275    5.1687 O.2       1 <0>        -0.4476
      8 C6         -7.0982   10.8671    4.3528 C.ar      1 <0>        -0.1655
      9 C7         -5.8782   10.2639    4.7101 C.ar      1 <0>         0.2025
     10 C8         -5.0552    9.7552    3.7125 C.ar      1 <0>        -0.1850
     11 C9         -5.4383    9.8571    2.3847 C.ar      1 <0>         0.1047
     12 C10        -6.6516   10.4583    2.0402 C.ar      1 <0>         0.0784
     13 C11        -7.4735   10.9578    3.0103 C.ar      1 <0>        -0.0596
     14 F1         -7.0138   10.5457    0.7416 F         1 <0>        -0.1294
     15 N2         -4.6100    9.3510    1.3860 N.pl3     1 <0>        -0.4952
     16 C12        -3.2995   10.0145    1.4026 C.3       1 <0>         0.0435
     17 C13        -2.4867    9.5631    0.1844 C.3       1 <0>         0.1102
     18 N3         -2.4394    8.0931    0.1729 N.am      1 <0>        -0.6083
     19 C14        -3.7067    7.3552    0.2858 C.3       1 <0>         0.1185
     20 C15        -4.4709    7.8935    1.5059 C.3       1 <0>         0.0458
     21 C16        -1.2664    7.4397    0.0565 C.2       1 <0>         0.5487
     22 O2         -1.2528    6.2268   -0.0426 O.2       1 <0>        -0.5389
     23 C17        -0.0085    8.1890    0.0492 C.2       1 <0>        -0.1955
     24 C18         1.1681    7.5309    0.0416 C.2       1 <0>        -0.0277
     25 C19         2.4328    8.2843    0.0342 C.ar      1 <0>        -0.0652
     26 C20         2.4178    9.6827    0.0346 C.ar      1 <0>        -0.0556
     27 C21         3.6066   10.3812    0.0326 C.ar      1 <0>        -0.1130
     28 C22         4.8126    9.7018    0.0190 C.ar      1 <0>        -0.0485
     29 C23         4.8356    8.3182    0.0190 C.ar      1 <0>        -0.0426
     30 C24         3.6550    7.6054    0.0263 C.ar      1 <0>        -0.0353
     31 N4          6.1306    7.6015    0.0107 N.pl3     1 <0>         0.0260
     32 O3          7.1742    8.2295    0.0038 O.2       1 <0>        -0.1552
     33 O4          6.1527    6.3837    0.0107 O.3       1 <0>        -0.1545
     34 C25        -8.2894   11.7568    7.9286 C.2       1 <0>         0.5072
     35 O5         -9.3593   12.2939    7.7170 O.co2     1 <0>        -0.6084
     36 H1         -3.2961   11.3871    6.9584 H         1 <0>         0.0696
     37 H2         -2.1549   10.0975    6.5080 H         1 <0>         0.0735
     38 H3         -3.0646   10.9618    5.2456 H         1 <0>         0.0599
     39 H4         -4.2716    9.1473    7.3828 H         1 <0>         0.0991
     40 H5         -4.0401    8.7219    5.6700 H         1 <0>         0.0851
     41 H6         -5.9181   10.5405    8.0501 H         1 <0>         0.1735
     42 H7         -4.1179    9.2851    3.9711 H         1 <0>         0.1372
     43 H8         -8.4109   11.4213    2.7402 H         1 <0>         0.1535
     44 H9         -2.7671    9.7456    2.3149 H         1 <0>         0.0477
     45 H10        -3.4380   11.0951    1.3673 H         1 <0>         0.0949
     46 H11        -1.4744    9.9615    0.2517 H         1 <0>         0.0918
     47 H12        -2.9612    9.9214   -0.7291 H         1 <0>         0.0854
     48 H13        -4.2993    7.5052   -0.6166 H         1 <0>         0.0818
     49 H14        -3.5013    6.2932    0.4201 H         1 <0>         0.1008
     50 H15        -3.9222    7.6542    2.4168 H         1 <0>         0.0472
     51 H16        -5.4593    7.4358    1.5452 H         1 <0>         0.0948
     52 H17        -0.0232    9.2689    0.0499 H         1 <0>         0.1348
     53 H18         1.1828    6.4510    0.0409 H         1 <0>         0.1455
     54 H19         1.4777   10.2142    0.0407 H         1 <0>         0.1475
     55 H20         3.5968   11.4611    0.0373 H         1 <0>         0.1537
     56 H21         5.7404   10.2545    0.0129 H         1 <0>         0.1568
     57 H22         3.6746    6.5255    0.0263 H         1 <0>         0.1598
     58 O6         -7.8413   11.6219    9.1928 O.co2     1 <0>        -0.7706
@<TRIPOS>BOND
     1    1    2 1
     2    1   36 1
     3    1   37 1
     4    1   38 1
     5    2    3 1
     6    2   39 1
     7    2   40 1
     8    3    9 1
     9    3    4 1
    10    4    5 2
    11    4   41 1
    12    5    6 1
    13    5   34 1
    14    6    7 2
    15    6    8 1
    16    8   13 ar
    17    8    9 ar
    18    9   10 ar
    19   10   11 ar
    20   10   42 1
    21   11   12 ar
    22   11   15 1
    23   12   13 ar
    24   12   14 1
    25   13   43 1
    26   15   20 1
    27   15   16 1
    28   16   17 1
    29   16   44 1
    30   16   45 1
    31   17   18 1
    32   17   46 1
    33   17   47 1
    34   18   19 1
    35   18   21 am
    36   19   20 1
    37   19   48 1
    38   19   49 1
    39   20   50 1
    40   20   51 1
    41   21   22 2
    42   21   23 1
    43   23   24 2
    44   23   52 1
    45   24   25 1
    46   24   53 1
    47   25   30 ar
    48   25   26 ar
    49   26   27 ar
    50   26   54 1
    51   27   28 ar
    52   27   55 1
    53   28   29 ar
    54   28   56 1
    55   29   30 ar
    56   29   31 1
    57   30   57 1
    58   31   32 2
    59   31   33 1
    60   34   35 2
    61   34   58 1
@<TRIPOS>MOLECULE
ZINC09272793
   50    53     0     0     0
SMALL
USER_CHARGES
(5R)-1-benzyl-3-hydroxy-4-(4-nitrobenzoyl)-5-(4-nitrophenyl)-5H-pyrrol-2-one
@<TRIPOS>ATOM
      1 C1          1.1623    5.5541   -3.1610 C.ar      1 <0>        -0.1139
      2 C2          2.5429    5.4850   -3.1700 C.ar      1 <0>        -0.1225
      3 C3          3.1761    4.2797   -2.9305 C.ar      1 <0>        -0.0939
      4 C4          2.4287    3.1436   -2.6825 C.ar      1 <0>        -0.1068
      5 C5          1.0481    3.2116   -2.6792 C.ar      1 <0>        -0.0992
      6 C6          0.4149    4.4180   -2.9130 C.ar      1 <0>        -0.1237
      7 C7          3.1191    1.8296   -2.4218 C.3       1 <0>         0.1707
      8 N1          3.3655    1.6840   -0.9851 N.am      1 <0>        -0.6076
      9 C8          2.4562    1.0694   -0.0108 C.3       1 <0>         0.2604
     10 H1          2.2417    0.0303   -0.3009 H         1 <0>         0.0780
     11 C9          3.1504    1.1555    1.3283 C.2       1 <0>        -0.5174
     12 C10         4.3403    1.7664    1.1115 C.2       1 <0>         0.2782
     13 C11         4.4655    2.0902   -0.3254 C.2       1 <0>         0.5137
     14 O1          5.4206    2.6415   -0.8353 O.2       1 <0>        -0.5208
     15 O2          5.2669    2.0361    2.0595 O.3       1 <0>        -0.6358
     16 C12         2.6355    0.6719    2.6127 C.2       1 <0>         0.4988
     17 O3          2.3686    1.4629    3.4978 O.2       1 <0>        -0.4529
     18 C13         2.4404   -0.7772    2.8327 C.ar      1 <0>        -0.0833
     19 C14         2.8482   -1.6951    1.8624 C.ar      1 <0>        -0.0671
     20 C15         2.6677   -3.0456    2.0762 C.ar      1 <0>        -0.0681
     21 C16         2.0746   -3.4913    3.2445 C.ar      1 <0>        -0.0360
     22 C17         1.6634   -2.5869    4.2079 C.ar      1 <0>        -0.0668
     23 C18         1.8423   -1.2338    4.0092 C.ar      1 <0>        -0.0771
     24 N2          1.8789   -4.9419    3.4645 N.pl3     1 <0>         0.0300
     25 O4          1.3570   -5.3371    4.4916 O.2       1 <0>        -0.1650
     26 O5          2.2399   -5.7403    2.6185 O.3       1 <0>        -0.1626
     27 C19         1.1536    1.8261    0.0313 C.ar      1 <0>        -0.0246
     28 C20        -0.0449    1.1452   -0.0718 C.ar      1 <0>        -0.1218
     29 C21        -1.2396    1.8399   -0.0389 C.ar      1 <0>        -0.0580
     30 C22        -1.2360    3.2145    0.1080 C.ar      1 <0>        -0.0504
     31 C23        -0.0374    3.8954    0.2106 C.ar      1 <0>        -0.0484
     32 C24         1.1574    3.2013    0.1725 C.ar      1 <0>        -0.0708
     33 N3         -2.5154    3.9577    0.1494 N.pl3     1 <0>         0.0348
     34 O6         -2.5120    5.1693    0.2739 O.2       1 <0>        -0.1681
     35 O7         -3.5715    3.3577    0.0590 O.3       1 <0>        -0.1723
     36 H2          0.6675    6.4959   -3.3475 H         1 <0>         0.1189
     37 H3          3.1268    6.3726   -3.3638 H         1 <0>         0.1205
     38 H4          4.2547    4.2257   -2.9375 H         1 <0>         0.1257
     39 H5          0.4641    2.3230   -2.4897 H         1 <0>         0.1147
     40 H6         -0.6637    4.4721   -2.9057 H         1 <0>         0.1119
     41 H7          2.4803    1.0044   -2.7697 H         1 <0>         0.0864
     42 H8          4.0768    1.8050   -2.9624 H         1 <0>         0.0933
     43 H9          3.3071   -1.3483    0.9483 H         1 <0>         0.1591
     44 H10         2.9857   -3.7568    1.3282 H         1 <0>         0.1552
     45 H11         1.2009   -2.9414    5.1172 H         1 <0>         0.1541
     46 H12         1.5208   -0.5290    4.7618 H         1 <0>         0.1540
     47 H13        -0.0479    0.0709   -0.1824 H         1 <0>         0.1436
     48 H14        -2.1759    1.3084   -0.1239 H         1 <0>         0.1485
     49 H15        -0.0344    4.9698    0.3210 H         1 <0>         0.1461
     50 H16         2.0938    3.7333    0.2526 H         1 <0>         0.1384
@<TRIPOS>BOND
     1    1    6 ar
     2    1    2 ar
     3    1   36 1
     4    2    3 ar
     5    2   37 1
     6    3    4 ar
     7    3   38 1
     8    4    5 ar
     9    4    7 1
    10    5    6 ar
    11    5   39 1
    12    6   40 1
    13    7    8 1
    14    7   41 1
    15    7   42 1
    16    8   13 am
    17    8    9 1
    18    9   10 1
    19    9   11 1
    20    9   27 1
    21   11   12 2
    22   11   16 1
    23   12   13 1
    24   12   15 1
    25   13   14 2
    26   16   17 2
    27   16   18 1
    28   18   23 ar
    29   18   19 ar
    30   19   20 ar
    31   19   43 1
    32   20   21 ar
    33   20   44 1
    34   21   22 ar
    35   21   24 1
    36   22   23 ar
    37   22   45 1
    38   23   46 1
    39   24   25 2
    40   24   26 1
    41   27   32 ar
    42   27   28 ar
    43   28   29 ar
    44   28   47 1
    45   29   30 ar
    46   29   48 1
    47   30   31 ar
    48   30   33 1
    49   31   32 ar
    50   31   49 1
    51   32   50 1
    52   33   34 2
    53   33   35 1
@<TRIPOS>MOLECULE
ZINC02088228
   40    42     0     0     0
SMALL
USER_CHARGES

@<TRIPOS>ATOM
      1 C1         -1.5429    0.4498   -5.6978 C.3       1 <0>        -0.0601
      2 C2         -1.3907   -0.9629   -5.1958 C.2       1 <0>         0.0695
      3 N1         -0.8054   -1.4155   -4.1056 N.2       1 <0>        -0.2750
      4 N2         -0.7636   -2.6446   -3.8257 N.2       1 <0>        -0.2903
      5 C3         -1.3091   -3.5605   -4.6161 C.2       1 <0>         0.0123
      6 S1         -1.9605   -2.5042   -5.9070 S.3       1 <0>         0.0214
      7 S2         -1.3785   -5.3125   -4.4418 S.3       1 <0>         0.1479
      8 C4         -0.5096   -5.6331   -2.8821 C.3       1 <0>        -0.1618
      9 C5         -0.4964   -7.1152   -2.6099 C.2       1 <0>         0.5341
     10 O1         -1.0215   -7.8800   -3.3913 O.2       1 <0>        -0.4972
     11 N3          0.0989   -7.5910   -1.4983 N.am      1 <0>        -0.6630
     12 C6          0.0278   -8.9553   -1.1959 C.ar      1 <0>         0.1715
     13 C7         -0.0635   -9.3712    0.1260 C.ar      1 <0>        -0.1640
     14 C8         -0.1334  -10.7186    0.4212 C.ar      1 <0>        -0.0049
     15 C9         -0.1126  -11.6531   -0.5978 C.ar      1 <0>        -0.6326
     16 C10        -0.0213  -11.2423   -1.9150 C.ar      1 <0>        -0.0046
     17 C11         0.0428   -9.8961   -2.2172 C.ar      1 <0>        -0.1424
     18 S3         -0.2020  -13.3712   -0.2170 S.o2      1 <0>         2.6279
     19 O2          0.3849  -14.0609   -1.3119 O.2       1 <0>        -1.0112
     20 O3          0.2689  -13.5167    1.1158 O.2       1 <0>        -1.0122
     21 N4         -1.8051  -13.7862   -0.2006 N.2       1 <0>        -1.0569
     22 C12        -2.1815  -15.0968    0.0752 C.ar      1 <0>         0.3826
     23 C13        -3.5307  -15.4509    0.0842 C.ar      1 <0>        -0.1399
     24 C14        -3.8534  -16.7686    0.3644 C.ar      1 <0>        -0.0866
     25 C15        -2.8143  -17.6553    0.6191 C.ar      1 <0>         0.0199
     26 N5         -1.5654  -17.2331    0.5895 N.ar      1 <0>        -0.1932
     27 N6         -1.2601  -16.0148    0.3250 N.ar      1 <0>        -0.3516
     28 Cl1        -3.1602  -19.3185    0.9766 Cl        1 <0>        -0.0568
     29 H1         -2.4635    0.8788   -5.3021 H         1 <0>         0.0972
     30 H2         -0.6926    1.0464   -5.3673 H         1 <0>         0.1013
     31 H3         -1.5826    0.4460   -6.7871 H         1 <0>         0.0919
     32 H4          0.5148   -5.2679   -2.9552 H         1 <0>         0.1330
     33 H5         -1.0215   -5.1188   -2.0687 H         1 <0>         0.1334
     34 H6          0.5766   -6.9876   -0.9079 H         1 <0>         0.4155
     35 H7         -0.0794   -8.6418    0.9223 H         1 <0>         0.1314
     36 H8         -0.2041  -11.0427    1.4490 H         1 <0>         0.1429
     37 H9         -0.0049  -11.9746   -2.7086 H         1 <0>         0.1422
     38 H10         0.1089   -9.5757   -3.2464 H         1 <0>         0.1436
     39 H11        -4.2996  -14.7207   -0.1206 H         1 <0>         0.1450
     40 H12        -4.8821  -17.0969    0.3848 H         1 <0>         0.1399
@<TRIPOS>BOND
     1    1    2 1
     2    1   29 1
     3    1   30 1
     4    1   31 1
     5    2    6 1
     6    2    3 2
     7    3    4 1
     8    4    5 2
     9    5    6 1
    10    5    7 1
    11    7    8 1
    12    8    9 1
    13    8   32 1
    14    8   33 1
    15    9   10 2
    16    9   11 am
    17   11   12 1
    18   11   34 1
    19   12   17 ar
    20   12   13 ar
    21   13   14 ar
    22   13   35 1
    23   14   15 ar
    24   14   36 1
    25   15   16 ar
    26   15   18 1
    27   16   17 ar
    28   16   37 1
    29   17   38 1
    30   18   19 2
    31   18   20 2
    32   18   21 1
    33   21   22 1
    34   22   27 ar
    35   22   23 ar
    36   23   24 ar
    37   23   39 1
    38   24   25 ar
    39   24   40 1
    40   25   26 ar
    41   25   28 1
    42   26   27 ar
@<TRIPOS>MOLECULE
ZINC39848710
   53    57     0     0     0
SMALL
USER_CHARGES

@<TRIPOS>ATOM
      1 C1          0.6489    1.3395    0.6666 C.3       1 <0>        -0.0829
      2 C2          0.5322   -0.1626    0.6330 C.2       1 <0>         0.0701
      3 C3         -0.5893   -0.8611    0.3832 C.2       1 <0>        -0.2846
      4 C4         -0.2720   -2.2368    0.4445 C.2       1 <0>         0.3606
      5 N1          1.0023   -2.3431    0.7230 N.2       1 <0>        -0.3418
      6 O1          1.5310   -1.0346    0.8414 O.3       1 <0>        -0.0824
      7 N2         -1.1590   -3.2930    0.2447 N.am      1 <0>        -0.5256
      8 C5         -0.8562   -4.7191    0.4145 C.3       1 <0>         0.2726
      9 H1         -0.0606   -5.0173   -0.2683 H         1 <0>         0.0928
     10 C6         -2.1300   -5.4616    0.0841 C.2       1 <0>        -0.4814
     11 C7         -3.0539   -4.5267   -0.2395 C.2       1 <0>         0.2709
     12 C8         -2.4460   -3.1857   -0.1323 C.2       1 <0>         0.5242
     13 O2         -3.0224   -2.1392   -0.3542 O.2       1 <0>        -0.4995
     14 O3         -4.3335   -4.7810   -0.6001 O.3       1 <0>        -0.6385
     15 C9         -2.3271   -6.9148    0.1087 C.2       1 <0>         0.5459
     16 O4         -3.0920   -7.4121    0.9158 O.2       1 <0>        -0.4426
     17 C10        -1.6020   -7.7706   -0.8400 C.2       1 <0>         0.0182
     18 C11        -1.7541   -9.1184   -0.9543 C.2       1 <0>        -0.1678
     19 C12        -0.8413   -9.5400   -2.0149 C.ar      1 <0>        -0.0978
     20 C13        -0.5303  -10.7721   -2.5996 C.ar      1 <0>        -0.1051
     21 C14         0.3964  -10.8337   -3.6011 C.ar      1 <0>        -0.1027
     22 C15         1.0331   -9.6821   -4.0436 C.ar      1 <0>        -0.1966
     23 C16         0.7417   -8.4538   -3.4799 C.ar      1 <0>         0.1457
     24 C17        -0.2019   -8.3679   -2.4568 C.ar      1 <0>         0.0369
     25 O5         -0.6887   -7.3393   -1.7341 O.3       1 <0>        -0.1472
     26 O6          1.3722   -7.3333   -3.9223 O.3       1 <0>        -0.3087
     27 C18         2.4047   -7.5108   -4.8941 C.3       1 <0>         0.0278
     28 C19        -0.4476   -4.9963    1.8383 C.ar      1 <0>        -0.0973
     29 C20        -0.8986   -4.1807    2.8583 C.ar      1 <0>        -0.0647
     30 C21        -0.5237   -4.4341    4.1646 C.ar      1 <0>        -0.1535
     31 C22         0.3029   -5.5043    4.4540 C.ar      1 <0>        -0.0877
     32 C23         0.7561   -6.3229    3.4379 C.ar      1 <0>        -0.2074
     33 C24         0.3770   -6.0738    2.1266 C.ar      1 <0>         0.1393
     34 O7          0.8170   -6.8810    1.1258 O.3       1 <0>        -0.3045
     35 C25         1.5873   -8.0233    1.5049 C.3       1 <0>         0.0305
     36 H2          1.6788    1.6190    0.8888 H         1 <0>         0.0819
     37 H3          0.3626    1.7480   -0.3025 H         1 <0>         0.0929
     38 H4         -0.0102    1.7380    1.4380 H         1 <0>         0.0929
     39 H5         -1.5628   -0.4435    0.1724 H         1 <0>         0.1685
     40 H6         -2.4150   -9.7486   -0.3778 H         1 <0>         0.1659
     41 H7         -1.0212  -11.6721   -2.2599 H         1 <0>         0.1280
     42 H8          0.6359  -11.7854   -4.0520 H         1 <0>         0.1285
     43 H9          1.7639   -9.7465   -4.8362 H         1 <0>         0.1361
     44 H10         2.8238   -6.5405   -5.1603 H         1 <0>         0.1002
     45 H11         3.1891   -8.1440   -4.4794 H         1 <0>         0.0554
     46 H12         1.9888   -7.9835   -5.7839 H         1 <0>         0.0552
     47 H13        -1.5442   -3.3442    2.6349 H         1 <0>         0.1171
     48 H14        -0.8767   -3.7950    4.9604 H         1 <0>         0.1190
     49 H15         0.5947   -5.7000    5.4752 H         1 <0>         0.1198
     50 H16         1.4016   -7.1586    3.6644 H         1 <0>         0.1249
     51 H17         2.4484   -7.7025    2.0913 H         1 <0>         0.0522
     52 H18         0.9710   -8.6953    2.1021 H         1 <0>         0.0527
     53 H19         1.9303   -8.5434    0.6105 H         1 <0>         0.0934
@<TRIPOS>BOND
     1    1    2 1
     2    1   36 1
     3    1   37 1
     4    1   38 1
     5    2    6 1
     6    2    3 2
     7    3    4 1
     8    3   39 1
     9    4    5 2
    10    4    7 1
    11    5    6 1
    12    7   12 am
    13    7    8 1
    14    8    9 1
    15    8   10 1
    16    8   28 1
    17   10   11 2
    18   10   15 1
    19   11   12 1
    20   11   14 1
    21   12   13 2
    22   15   16 2
    23   15   17 1
    24   17   25 1
    25   17   18 2
    26   18   19 1
    27   18   40 1
    28   19   24 ar
    29   19   20 ar
    30   20   21 ar
    31   20   41 1
    32   21   22 ar
    33   21   42 1
    34   22   23 ar
    35   22   43 1
    36   23   24 ar
    37   23   26 1
    38   24   25 1
    39   26   27 1
    40   27   44 1
    41   27   45 1
    42   27   46 1
    43   28   33 ar
    44   28   29 ar
    45   29   30 ar
    46   29   47 1
    47   30   31 ar
    48   30   48 1
    49   31   32 ar
    50   31   49 1
    51   32   33 ar
    52   32   50 1
    53   33   34 1
    54   34   35 1
    55   35   51 1
    56   35   52 1
    57   35   53 1
@<TRIPOS>MOLECULE
ZINC12531985
   47    50     0     0     0
SMALL
USER_CHARGES

@<TRIPOS>ATOM
      1 C1          1.0722   -0.4527   -0.7660 C.ar      1 <0>        -0.1434
      2 C2          2.2561    0.2585   -0.7779 C.ar      1 <0>        -0.0018
      3 C3          2.3763    1.4164   -0.0315 C.ar      1 <0>        -0.6354
      4 C4          1.3123    1.8662    0.7286 C.ar      1 <0>        -0.0023
      5 C5          0.1256    1.1598    0.7444 C.ar      1 <0>        -0.1667
      6 C6          0.0017   -0.0036   -0.0037 C.ar      1 <0>         0.1785
      7 N1         -1.1992   -0.7216    0.0101 N.am      1 <0>        -0.6679
      8 C7         -1.1825   -2.0648   -0.0990 C.2       1 <0>         0.4982
      9 O1         -0.1253   -2.6591   -0.1129 O.2       1 <0>        -0.5028
     10 C8         -2.4775   -2.8284   -0.2038 C.3       1 <0>         0.0835
     11 N2         -2.1922   -4.2613   -0.3114 N.am      1 <0>        -0.5771
     12 C9         -2.0043   -4.8963   -1.4975 C.2       1 <0>         0.5502
     13 O2         -2.2430   -4.4591   -2.6027 O.2       1 <0>        -0.4637
     14 C10        -1.4421   -6.2453   -1.1660 C.3       1 <0>        -0.1301
     15 H1         -0.3577   -6.1909   -1.0699 H         1 <0>         0.1309
     16 C11        -1.8345   -7.4198   -2.0373 C.3       1 <0>        -0.0680
     17 C12        -1.4303   -8.6748   -1.2924 C.2       1 <0>        -0.1549
     18 C13        -1.1775   -8.7222   -0.0194 C.2       1 <0>        -0.1517
     19 C14        -1.2741   -7.5353    0.9161 C.3       1 <0>        -0.0714
     20 C15        -2.1023   -6.4819    0.2275 C.3       1 <0>        -0.1283
     21 H2         -3.1232   -6.8449    0.1093 H         1 <0>         0.1277
     22 C16        -2.0842   -5.0822    0.7655 C.2       1 <0>         0.5478
     23 O3         -1.9939   -4.7496    1.9277 O.2       1 <0>        -0.4595
     24 S1          3.8887    2.3202   -0.0484 S.o2      1 <0>         2.6373
     25 O4          3.9280    3.0689    1.1587 O.2       1 <0>        -1.0107
     26 O5          4.9089    1.3981   -0.4064 O.2       1 <0>        -1.0098
     27 N3          3.7889    3.4186   -1.2837 N.2       1 <0>        -1.0312
     28 C17         4.8481    4.2764   -1.5356 C.2       1 <0>         0.4017
     29 N4          6.0021    4.3574   -0.9081 N.2       1 <0>        -0.6660
     30 C18         6.9170    5.2379   -1.2739 C.2       1 <0>         0.1005
     31 C19         6.6116    6.0461   -2.3173 C.2       1 <0>        -0.3463
     32 S2          4.9738    5.4625   -2.7230 S.3       1 <0>         0.0096
     33 H3          0.9775   -1.3547   -1.3524 H         1 <0>         0.1361
     34 H4          3.0889   -0.0902   -1.3705 H         1 <0>         0.1416
     35 H5          1.4094    2.7707    1.3107 H         1 <0>         0.1431
     36 H6         -0.7050    1.5114    1.3385 H         1 <0>         0.1317
     37 H7         -2.0437   -0.2526    0.0982 H         1 <0>         0.4137
     38 H8         -3.0811   -2.6439    0.6849 H         1 <0>         0.1254
     39 H9         -3.0230   -2.4991   -1.0882 H         1 <0>         0.1304
     40 H10        -2.9117   -7.4164   -2.2037 H         1 <0>         0.0862
     41 H11        -1.3094   -7.3676   -2.9911 H         1 <0>         0.0919
     42 H12        -1.3469   -9.5915   -1.8573 H         1 <0>         0.1141
     43 H13        -0.8788   -9.6715    0.4001 H         1 <0>         0.1145
     44 H14        -1.7494   -7.8352    1.8500 H         1 <0>         0.0912
     45 H15        -0.2795   -7.1361    1.1148 H         1 <0>         0.0871
     46 H16         7.8659    5.3103   -0.7634 H         1 <0>         0.1456
     47 H17         7.1988    6.8262   -2.7789 H         1 <0>         0.1705
@<TRIPOS>BOND
     1    1    6 ar
     2    1    2 ar
     3    1   33 1
     4    2    3 ar
     5    2   34 1
     6    3    4 ar
     7    3   24 1
     8    4    5 ar
     9    4   35 1
    10    5    6 ar
    11    5   36 1
    12    6    7 1
    13    7    8 am
    14    7   37 1
    15    8    9 2
    16    8   10 1
    17   10   11 1
    18   10   38 1
    19   10   39 1
    20   11   22 am
    21   11   12 am
    22   12   13 2
    23   12   14 1
    24   14   15 1
    25   14   20 1
    26   14   16 1
    27   16   17 1
    28   16   40 1
    29   16   41 1
    30   17   18 2
    31   17   42 1
    32   18   19 1
    33   18   43 1
    34   19   20 1
    35   19   44 1
    36   19   45 1
    37   20   21 1
    38   20   22 1
    39   22   23 2
    40   24   25 2
    41   24   26 2
    42   24   27 1
    43   27   28 1
    44   28   32 1
    45   28   29 2
    46   29   30 1
    47   30   31 2
    48   30   46 1
    49   31   32 1
    50   31   47 1
@<TRIPOS>MOLECULE
ZINC13546432
   52    56     0     0     0
SMALL
USER_CHARGES

@<TRIPOS>ATOM
      1 C1         -0.7808    1.3695    0.0548 C.3       1 <0>        -0.0786
      2 C2         -0.3571   -0.0764    0.0248 C.2       1 <0>        -0.0153
      3 C3         -0.4652   -0.8961   -1.0330 C.2       1 <0>        -0.0602
      4 C4          0.0684   -2.1984   -0.6059 C.2       1 <0>        -0.1564
      5 C5          0.4606   -2.0323    0.7148 C.2       1 <0>         0.0669
      6 N1          0.2038   -0.7592    1.0693 N.pl3     1 <0>        -0.4051
      7 C6          0.4697   -0.2118    2.3315 C.ar      1 <0>         0.1366
      8 C7          1.7803   -0.0829    2.7720 C.ar      1 <0>        -0.0608
      9 C8          2.0391    0.4574    4.0162 C.ar      1 <0>        -0.1018
     10 C9          0.9946    0.8701    4.8234 C.ar      1 <0>        -0.0540
     11 C10        -0.3114    0.7431    4.3876 C.ar      1 <0>        -0.0383
     12 C11        -0.5764    0.2082    3.1418 C.ar      1 <0>        -0.0527
     13 N2         -1.4263    1.1860    5.2545 N.pl3     1 <0>         0.0340
     14 O1         -1.1948    1.6584    6.3430 O.2       1 <0>        -0.1537
     15 O2         -2.5685    1.0753    4.8740 O.3       1 <0>        -0.1534
     16 C12         1.0729   -3.0903    1.5961 C.3       1 <0>        -0.0895
     17 C13         0.1622   -3.3779   -1.3817 C.2       1 <0>         0.0944
     18 C14         0.6017   -3.3108   -2.6942 C.2       1 <0>        -0.2846
     19 C15         1.1653   -2.0666   -3.2577 C.2       1 <0>         0.5376
     20 N3          1.5719   -2.0727   -4.5378 N.2       1 <0>        -0.6677
     21 C16         1.4821   -3.1413   -5.2892 C.2       1 <0>         0.6340
     22 O3          1.9138   -3.0610   -6.5631 O.3       1 <0>        -0.6472
     23 N4          0.9778   -4.3277   -4.8561 N.am      1 <0>        -0.5306
     24 C17         0.5342   -4.4782   -3.5898 C.2       1 <0>         0.5671
     25 O4          0.0885   -5.5426   -3.2024 O.2       1 <0>        -0.5244
     26 C18         0.9232   -5.4163   -5.7389 C.ar      1 <0>         0.1735
     27 C19        -0.3041   -5.8862   -6.1863 C.ar      1 <0>        -0.0943
     28 C20        -0.3596   -6.9581   -7.0563 C.ar      1 <0>        -0.0906
     29 C21         0.8090   -7.5674   -7.4844 C.ar      1 <0>         0.0230
     30 C22         2.0418   -7.0981   -7.0371 C.ar      1 <0>         0.0374
     31 C23         2.0964   -6.0200   -6.1696 C.ar      1 <0>        -0.0722
     32 O5          3.0275   -7.8587   -7.5970 O.3       1 <0>        -0.3083
     33 C24         2.3727   -9.0520   -8.0664 C.3       1 <0>         0.2137
     34 O6          1.0230   -8.6224   -8.3249 O.3       1 <0>        -0.3111
     35 O7          1.2587   -1.0587   -2.5773 O.2       1 <0>        -0.5234
     36 H1          0.0527    1.9989   -0.2568 H         1 <0>         0.0699
     37 H2         -1.6206    1.5162   -0.6243 H         1 <0>         0.0822
     38 H3         -1.0810    1.6392    1.0674 H         1 <0>         0.0523
     39 H4         -0.8652   -0.6483   -2.0051 H         1 <0>         0.1464
     40 H5          2.5964   -0.4054    2.1423 H         1 <0>         0.1516
     41 H6          3.0582    0.5575    4.3595 H         1 <0>         0.1572
     42 H7          1.1995    1.2920    5.7962 H         1 <0>         0.1588
     43 H8         -1.5965    0.1135    2.8002 H         1 <0>         0.1602
     44 H9          2.1579   -3.0639    1.4952 H         1 <0>         0.0775
     45 H10         0.7999   -2.9011    2.6342 H         1 <0>         0.0632
     46 H11         0.7039   -4.0711    1.2963 H         1 <0>         0.0871
     47 H12        -0.1089   -4.3305   -0.9510 H         1 <0>         0.1311
     48 H13        -1.2164   -5.4137   -5.8537 H         1 <0>         0.1367
     49 H14        -1.3155   -7.3219   -7.4031 H         1 <0>         0.1380
     50 H15         3.0514   -5.6519   -5.8248 H         1 <0>         0.1356
     51 H16         2.8422   -9.4116   -8.9820 H         1 <0>         0.1276
     52 H17         2.3881   -9.8248   -7.2979 H         1 <0>         0.0802
@<TRIPOS>BOND
     1    1    2 1
     2    1   36 1
     3    1   37 1
     4    1   38 1
     5    2    6 1
     6    2    3 2
     7    3    4 1
     8    3   39 1
     9    4    5 2
    10    4   17 1
    11    5    6 1
    12    5   16 1
    13    6    7 1
    14    7   12 ar
    15    7    8 ar
    16    8    9 ar
    17    8   40 1
    18    9   10 ar
    19    9   41 1
    20   10   11 ar
    21   10   42 1
    22   11   12 ar
    23   11   13 1
    24   12   43 1
    25   13   14 2
    26   13   15 1
    27   16   44 1
    28   16   45 1
    29   16   46 1
    30   17   18 2
    31   17   47 1
    32   18   24 1
    33   18   19 1
    34   19   20 1
    35   19   35 2
    36   20   21 2
    37   21   22 1
    38   21   23 1
    39   23   24 am
    40   23   26 1
    41   24   25 2
    42   26   31 ar
    43   26   27 ar
    44   27   28 ar
    45   27   48 1
    46   28   29 ar
    47   28   49 1
    48   29   34 1
    49   29   30 ar
    50   30   31 ar
    51   30   32 1
    52   31   50 1
    53   32   33 1
    54   33   34 1
    55   33   51 1
    56   33   52 1
@<TRIPOS>MOLECULE
ZINC35233083
   26    27     0     0     0
SMALL
USER_CHARGES

@<TRIPOS>ATOM
      1 C1         -0.0167    1.3780    0.0096 C.ar      1 <0>        -0.0750
      2 C2          1.1691    2.0888    0.0021 C.ar      1 <0>        -0.1882
      3 C3          2.3799    1.4210   -0.0131 C.ar      1 <0>        -0.1443
      4 C4          2.4074    0.0363   -0.0208 C.ar      1 <0>         0.0301
      5 C5          1.2130   -0.6808   -0.0132 C.ar      1 <0>         0.2838
      6 C6          0.0021   -0.0041    0.0020 C.ar      1 <0>        -0.2397
      7 N1          1.2346   -2.0803   -0.0214 N.2       1 <0>        -1.0733
      8 S1         -0.1865   -2.9304   -0.0124 S.o2      1 <0>         2.6359
      9 O1         -0.8056   -2.6734    1.2405 O.2       1 <0>        -1.0108
     10 O2         -0.8299   -2.6591   -1.2500 O.2       1 <0>        -1.0143
     11 C7          0.2305   -4.6423   -0.0263 C.2       1 <0>        -0.7196
     12 C8          0.4403   -5.4913    1.0113 C.2       1 <0>         0.1593
     13 N2          0.7427   -6.7395    0.7110 N.2       1 <0>        -0.5232
     14 C9          0.8353   -7.1370   -0.5345 C.2       1 <0>         0.0663
     15 S2          0.4863   -5.7422   -1.4094 S.3       1 <0>         0.2963
     16 Cl1         1.2181   -8.7199   -1.1359 Cl        1 <0>         0.0522
     17 O3          3.5975   -0.6219   -0.0361 O.3       1 <0>        -0.2786
     18 C10         4.7814    0.1784   -0.0436 C.3       1 <0>         0.5920
     19 F1          4.8098    0.9798    1.1028 F         1 <0>        -0.1763
     20 F2          5.9063   -0.6531   -0.0593 F         1 <0>        -0.1445
     21 F3          4.7871    0.9921   -1.1816 F         1 <0>        -0.1763
     22 H1         -0.9599    1.9039    0.0260 H         1 <0>         0.1125
     23 H2          1.1497    3.1687    0.0078 H         1 <0>         0.1137
     24 H3          3.3044    1.9793   -0.0192 H         1 <0>         0.1187
     25 H4         -0.9257   -0.5569    0.0083 H         1 <0>         0.1108
     26 H5          0.3634   -5.1599    2.0363 H         1 <0>         0.1927
@<TRIPOS>BOND
     1    1    6 ar
     2    1    2 ar
     3    1   22 1
     4    2    3 ar
     5    2   23 1
     6    3    4 ar
     7    3   24 1
     8    4    5 ar
     9    4   17 1
    10    5    6 ar
    11    5    7 1
    12    6   25 1
    13    7    8 1
    14    8    9 2
    15    8   10 2
    16    8   11 1
    17   11   15 1
    18   11   12 2
    19   12   13 1
    20   12   26 1
    21   13   14 2
    22   14   15 1
    23   14   16 1
    24   17   18 1
    25   18   19 1
    26   18   20 1
    27   18   21 1
@<TRIPOS>MOLECULE
ZINC39959574
   45    48     0     0     0
SMALL
USER_CHARGES

@<TRIPOS>ATOM
      1 C1          0.0053    1.3997    0.2260 C.ar      1 <0>        -0.0968
      2 C2          1.1680    2.0561    0.5889 C.ar      1 <0>        -0.1369
      3 C3          2.3721    1.3833    0.5905 C.ar      1 <0>        -0.0794
      4 C4          2.4158    0.0360    0.2245 C.ar      1 <0>        -0.1187
      5 C5          1.2381   -0.6203   -0.1408 C.ar      1 <0>        -0.0864
      6 C6          0.0412    0.0651   -0.1378 C.ar      1 <0>        -0.1161
      7 C7          3.6997   -0.6902    0.2233 C.2       1 <0>         0.1764
      8 N1          3.7173   -1.9762    0.0536 N.2       1 <0>        -0.2358
      9 N2          2.5181   -2.7004    0.0618 N.pl3     1 <0>        -0.3593
     10 C8          1.7192   -2.9673    1.1424 C.2       1 <0>         0.1107
     11 N3          0.7065   -3.6665    0.7124 N.2       1 <0>        -0.2580
     12 N4          0.8071   -3.8594   -0.5541 N.2       1 <0>        -0.3326
     13 C9          1.8965   -3.2842   -1.0094 C.2       1 <0>         0.3863
     14 S1          2.4543   -3.2700   -2.6807 S.3       1 <0>        -0.7798
     15 C10         1.9658   -2.5335    2.5644 C.3       1 <0>         0.1656
     16 O1          1.3565   -1.2601    2.7865 O.3       1 <0>        -0.2977
     17 C11         1.4862   -0.7221    4.0277 C.ar      1 <0>         0.1408
     18 C12         2.1900   -1.4012    5.0121 C.ar      1 <0>        -0.2112
     19 C13         2.3134   -0.8478    6.2684 C.ar      1 <0>        -0.0792
     20 C14         1.7410    0.3847    6.5585 C.ar      1 <0>        -0.1223
     21 C15         1.0464    1.0628    5.5817 C.ar      1 <0>        -0.0369
     22 C16         0.9217    0.5087    4.3150 C.ar      1 <0>        -0.1512
     23 C17         0.4150    2.4092    5.8225 C.3       1 <0>        -0.0803
     24 C18         0.2694    2.6745    7.3195 C.3       1 <0>        -0.1190
     25 C19         1.6254    2.4240    7.9896 C.3       1 <0>        -0.1196
     26 C20         1.9100    0.9238    7.9550 C.3       1 <0>        -0.0733
     27 H1         -0.9354    1.9302    0.2309 H         1 <0>         0.1182
     28 H2          1.1327    3.0980    0.8714 H         1 <0>         0.1200
     29 H3          3.2789    1.8970    0.8737 H         1 <0>         0.1226
     30 H4          1.2648   -1.6619   -0.4252 H         1 <0>         0.1561
     31 H5         -0.8702   -0.4410   -0.4200 H         1 <0>         0.1188
     32 H6          4.6250   -0.1512    0.3636 H         1 <0>         0.1868
     33 H7          1.5359   -3.2661    3.2475 H         1 <0>         0.0907
     34 H8          3.0389   -2.4585    2.7405 H         1 <0>         0.0712
     35 H9          2.6388   -2.3592    4.7949 H         1 <0>         0.1264
     36 H10         2.8600   -1.3774    7.0348 H         1 <0>         0.1205
     37 H11         0.3766    1.0402    3.5489 H         1 <0>         0.1271
     38 H12         1.0408    3.1840    5.3795 H         1 <0>         0.0766
     39 H13        -0.5697    2.4329    5.3559 H         1 <0>         0.0751
     40 H14        -0.0344    3.7088    7.4811 H         1 <0>         0.0661
     41 H15        -0.4779    2.0019    7.7405 H         1 <0>         0.0652
     42 H16         2.4065    2.9583    7.4487 H         1 <0>         0.0647
     43 H17         1.5931    2.7678    9.0235 H         1 <0>         0.0647
     44 H18         1.2189    0.4114    8.6243 H         1 <0>         0.0703
     45 H19         2.9320    0.7441    8.2885 H         1 <0>         0.0693
@<TRIPOS>BOND
     1    1    6 ar
     2    1    2 ar
     3    1   27 1
     4    2    3 ar
     5    2   28 1
     6    3    4 ar
     7    3   29 1
     8    4    5 ar
     9    4    7 1
    10    5    6 ar
    11    5   30 1
    12    6   31 1
    13    7    8 2
    14    7   32 1
    15    8    9 1
    16    9   13 1
    17    9   10 1
    18   10   11 2
    19   10   15 1
    20   11   12 1
    21   12   13 2
    22   13   14 1
    23   15   16 1
    24   15   33 1
    25   15   34 1
    26   16   17 1
    27   17   22 ar
    28   17   18 ar
    29   18   19 ar
    30   18   35 1
    31   19   20 ar
    32   19   36 1
    33   20   26 1
    34   20   21 ar
    35   21   22 ar
    36   21   23 1
    37   22   37 1
    38   23   24 1
    39   23   38 1
    40   23   39 1
    41   24   25 1
    42   24   40 1
    43   24   41 1
    44   25   26 1
    45   25   42 1
    46   25   43 1
    47   26   44 1
    48   26   45 1
@<TRIPOS>MOLECULE
ZINC31535152
   45    48     0     0     0
SMALL
USER_CHARGES

@<TRIPOS>ATOM
      1 C1          0.9171    1.3470   -0.1383 C.3       1 <0>        -0.0612
      2 C2          0.4280   -0.0767   -0.0693 C.2       1 <0>         0.0332
      3 C3         -0.5720   -0.6398   -0.8691 C.2       1 <0>        -0.2833
      4 C4         -0.7194   -1.9343   -0.5024 C.2       1 <0>         0.0682
      5 N1          0.1580   -2.1815    0.4959 N.pl3     1 <0>        -0.2652
      6 N2          0.8698   -1.0011    0.7455 N.2       1 <0>        -0.2381
      7 C5          0.3290   -3.4052    1.1607 C.ar      1 <0>         0.0535
      8 C6          0.4552   -4.5796    0.4341 C.ar      1 <0>        -0.0704
      9 C7          0.6235   -5.7839    1.0909 C.ar      1 <0>        -0.2156
     10 C8          0.6663   -5.8229    2.4728 C.ar      1 <0>        -0.0560
     11 C9          0.5414   -4.6578    3.2050 C.ar      1 <0>        -0.2559
     12 C10         0.3783   -3.4433    2.5538 C.ar      1 <0>         0.2974
     13 N3          0.2575   -2.2625    3.2920 N.2       1 <0>        -1.0545
     14 S1          0.3164   -2.3107    4.9463 S.o2      1 <0>         2.5985
     15 O1         -0.8383   -3.0201    5.3733 O.2       1 <0>        -1.0305
     16 O2          1.6327   -2.7178    5.2941 O.2       1 <0>        -1.0254
     17 C11         0.1325   -0.6557    5.5225 C.ar      1 <0>        -0.6067
     18 C12         1.2638    0.1380    5.7030 C.ar      1 <0>        -0.0281
     19 C13         1.1567    1.4201    6.1471 C.ar      1 <0>        -0.1344
     20 C14        -0.1122    1.9548    6.4283 C.ar      1 <0>        -0.0198
     21 C15        -0.2626    3.2744    6.8879 C.ar      1 <0>        -0.1170
     22 C16        -1.5073    3.7585    7.1496 C.ar      1 <0>        -0.1075
     23 C17        -2.6386    2.9648    6.9688 C.ar      1 <0>        -0.1331
     24 C18        -2.5314    1.6826    6.5252 C.ar      1 <0>        -0.0877
     25 C19        -1.2625    1.1478    6.2444 C.ar      1 <0>        -0.0767
     26 C20        -1.1126   -0.1699    5.7794 C.ar      1 <0>         0.0042
     27 C21        -1.6881   -2.9224   -1.0993 C.3       1 <0>        -0.0857
     28 H1          1.7402    1.4144   -0.8496 H         1 <0>         0.0654
     29 H2          0.1030    1.9956   -0.4621 H         1 <0>         0.0667
     30 H3          1.2618    1.6609    0.8470 H         1 <0>         0.0663
     31 H4         -1.1285   -0.1312   -1.6425 H         1 <0>         0.1345
     32 H5          0.4215   -4.5532   -0.6450 H         1 <0>         0.1121
     33 H6          0.7216   -6.6975    0.5233 H         1 <0>         0.1126
     34 H7          0.7973   -6.7668    2.9810 H         1 <0>         0.1097
     35 H8          0.5753   -4.6917    4.2840 H         1 <0>         0.1054
     36 H9          2.2401   -0.2705    5.4876 H         1 <0>         0.1366
     37 H10         2.0422    2.0232    6.2829 H         1 <0>         0.1304
     38 H11         0.6051    3.9009    7.0330 H         1 <0>         0.1269
     39 H12        -1.6201    4.7728    7.5031 H         1 <0>         0.1216
     40 H13        -3.6149    3.3732    7.1842 H         1 <0>         0.1223
     41 H14        -3.4169    1.0792    6.3901 H         1 <0>         0.1290
     42 H15        -1.9806   -0.7951    5.6304 H         1 <0>         0.1407
     43 H16        -1.1853   -3.5015   -1.8739 H         1 <0>         0.0705
     44 H17        -2.0486   -3.5939   -0.3201 H         1 <0>         0.0721
     45 H18        -2.5310   -2.3866   -1.5358 H         1 <0>         0.0751
@<TRIPOS>BOND
     1    1    2 1
     2    1   28 1
     3    1   29 1
     4    1   30 1
     5    2    6 2
     6    2    3 1
     7    3    4 2
     8    3   31 1
     9    4    5 1
    10    4   27 1
    11    5    6 1
    12    5    7 1
    13    7   12 ar
    14    7    8 ar
    15    8    9 ar
    16    8   32 1
    17    9   10 ar
    18    9   33 1
    19   10   11 ar
    20   10   34 1
    21   11   12 ar
    22   11   35 1
    23   12   13 1
    24   13   14 1
    25   14   15 2
    26   14   16 2
    27   14   17 1
    28   17   26 ar
    29   17   18 ar
    30   18   19 ar
    31   18   36 1
    32   19   20 ar
    33   19   37 1
    34   20   25 ar
    35   20   21 ar
    36   21   22 ar
    37   21   38 1
    38   22   23 ar
    39   22   39 1
    40   23   24 ar
    41   23   40 1
    42   24   25 ar
    43   24   41 1
    44   25   26 ar
    45   26   42 1
    46   27   43 1
    47   27   44 1
    48   27   45 1
@<TRIPOS>MOLECULE
ZINC64110422
   36    39     0     0     0
SMALL
USER_CHARGES

@<TRIPOS>ATOM
      1 C1         -0.0164    1.3554    0.0095 C.ar      1 <0>        -0.1098
      2 C2          1.1547    2.1006    0.0023 C.ar      1 <0>        -0.1429
      3 C3          2.3735    1.4476   -0.0128 C.ar      1 <0>        -0.0513
      4 C4          2.4039    0.0749   -0.0204 C.ar      1 <0>        -0.2119
      5 C5          1.2277   -0.7130   -0.0134 C.ar      1 <0>         0.1227
      6 C6          0.0021   -0.0041    0.0020 C.ar      1 <0>        -0.0972
      7 N1          1.4172   -2.0459   -0.0227 N.2       1 <0>        -0.5840
      8 C7          2.6182   -2.5898   -0.0374 C.2       1 <0>         0.3059
      9 S1          3.6850   -1.1557   -0.0397 S.3       1 <0>         0.0389
     10 C8          2.9863   -4.0137   -0.0494 C.2       1 <0>        -0.2658
     11 C9          1.9649   -5.0173   -0.0456 C.1       1 <0>         0.3128
     12 N2          1.1546   -5.8135   -0.0426 N.1       1 <0>        -0.4997
     13 C10         4.3261   -4.3853   -0.0644 C.2       1 <0>         0.3785
     14 O1          5.2918   -3.4364   -0.0680 O.3       1 <0>        -0.5740
     15 C11         4.6793   -5.7519   -0.0759 C.2       1 <0>         0.0951
     16 N3          5.8870   -6.2658   -0.0847 N.2       1 <0>        -0.2408
     17 N4          5.9145   -7.5407   -0.0938 N.2       1 <0>        -0.2836
     18 C12         4.7310   -8.1064   -0.0926 C.2       1 <0>         0.1061
     19 C13         3.7444   -6.9503   -0.0741 C.3       1 <0>        -0.1624
     20 C14         4.4261   -9.5420   -0.1020 C.ar      1 <0>        -0.0257
     21 C15         3.0952   -9.9791   -0.1056 C.ar      1 <0>        -0.0740
     22 C16         2.8173  -11.3285   -0.1149 C.ar      1 <0>        -0.1128
     23 C17         3.8504  -12.2525   -0.1202 C.ar      1 <0>        -0.0209
     24 C18         5.1698  -11.8281   -0.1163 C.ar      1 <0>        -0.1156
     25 C19         5.4643  -10.4823   -0.1133 C.ar      1 <0>        -0.0627
     26 Cl1         3.4897  -13.9506   -0.1313 Cl        1 <0>        -0.0696
     27 H1         -0.9665    1.8686    0.0259 H         1 <0>         0.1190
     28 H2          1.1144    3.1798    0.0081 H         1 <0>         0.1239
     29 H3          3.2939    2.0126   -0.0189 H         1 <0>         0.1214
     30 H4         -0.9297   -0.5501    0.0079 H         1 <0>         0.1192
     31 H5          3.1349   -6.9690    0.8294 H         1 <0>         0.1469
     32 H6          3.1182   -6.9588   -0.9663 H         1 <0>         0.1463
     33 H7          2.2892   -9.2603   -0.1007 H         1 <0>         0.1426
     34 H8          1.7918  -11.6672   -0.1176 H         1 <0>         0.1400
     35 H9          5.9691  -12.5544   -0.1198 H         1 <0>         0.1392
     36 H10         6.4930  -10.1531   -0.1151 H         1 <0>         0.1462
@<TRIPOS>BOND
     1    1    6 ar
     2    1    2 ar
     3    1   27 1
     4    2    3 ar
     5    2   28 1
     6    3    4 ar
     7    3   29 1
     8    4    9 1
     9    4    5 ar
    10    5    6 ar
    11    5    7 1
    12    6   30 1
    13    7    8 2
    14    8    9 1
    15    8   10 1
    16   10   11 1
    17   10   13 2
    18   11   12 3
    19   13   14 1
    20   13   15 1
    21   15   19 1
    22   15   16 2
    23   16   17 1
    24   17   18 2
    25   18   19 1
    26   18   20 1
    27   19   31 1
    28   19   32 1
    29   20   25 ar
    30   20   21 ar
    31   21   22 ar
    32   21   33 1
    33   22   23 ar
    34   22   34 1
    35   23   24 ar
    36   23   26 1
    37   24   25 ar
    38   24   35 1
    39   25   36 1
@<TRIPOS>MOLECULE
ZINC66247083
   40    42     0     0     0
SMALL
USER_CHARGES

@<TRIPOS>ATOM
      1 C1         -0.0184    1.5028    0.0103 C.3       1 <0>        -0.1690
      2 C2          0.0021   -0.0041    0.0020 C.ar      1 <0>         0.0591
      3 C3          0.0058   -0.6883   -1.1989 C.ar      1 <0>        -0.1838
      4 C4          0.0250   -2.0725   -1.2062 C.ar      1 <0>         0.1461
      5 C5          0.0405   -2.7700   -0.0100 C.ar      1 <0>        -0.1869
      6 C6          0.0368   -2.0839    1.1893 C.ar      1 <0>         0.0074
      7 C7          0.0229   -0.7013    1.1953 C.ar      1 <0>        -0.6434
      8 S1          0.0249    0.1725    2.7255 S.o2      1 <0>         2.6243
      9 O1         -1.0150    1.1374    2.6435 O.2       1 <0>        -0.9948
     10 O2          0.0752   -0.8079    3.7529 O.2       1 <0>        -0.9994
     11 N1          1.4478    1.0157    2.8059 N.2       1 <0>        -0.9971
     12 C8          1.7236    1.7971    3.9050 C.2       1 <0>         0.4423
     13 N2          2.7981    2.5371    4.1345 N.2       1 <0>        -0.5979
     14 C9          2.9381    3.2419    5.2307 C.2       1 <0>         0.2276
     15 C10         1.8619    3.1432    6.1221 C.2       1 <0>        -0.4184
     16 S2          0.7700    2.0441    5.2739 S.3       1 <0>        -0.0232
     17 C11         1.7661    3.7960    7.3447 C.2       1 <0>         0.4459
     18 O3          0.8060    3.6401    8.0728 O.2       1 <0>        -0.5083
     19 C12         2.9129    4.7119    7.7319 C.3       1 <0>        -0.1405
     20 C13         4.2135    4.1810    7.1285 C.3       1 <0>        -0.0565
     21 C14         4.1257    4.1185    5.6007 C.3       1 <0>        -0.0376
     22 C15         4.4840    2.7773    7.6739 C.3       1 <0>        -0.1500
     23 C16         5.3662    5.1044    7.5279 C.3       1 <0>        -0.1382
     24 F1          0.0282   -2.7424   -2.3795 F         1 <0>        -0.1365
     25 H1          1.0042    1.8801    0.0026 H         1 <0>         0.0975
     26 H2         -0.5455    1.8639   -0.8728 H         1 <0>         0.0774
     27 H3         -0.5286    1.8543    0.9071 H         1 <0>         0.1104
     28 H4         -0.0067   -0.1433   -2.1312 H         1 <0>         0.1420
     29 H5          0.0552   -3.8499   -0.0145 H         1 <0>         0.1421
     30 H6          0.0485   -2.6276    2.1224 H         1 <0>         0.1519
     31 H7          2.7199    5.7158    7.3537 H         1 <0>         0.0929
     32 H8          3.0022    4.7434    8.8178 H         1 <0>         0.0881
     33 H9          5.0415    3.6871    5.1967 H         1 <0>         0.0885
     34 H10         3.9821    5.1215    5.1988 H         1 <0>         0.0888
     35 H11         3.6592    2.1176    7.4043 H         1 <0>         0.0646
     36 H12         5.4106    2.3938    7.2467 H         1 <0>         0.0570
     37 H13         4.5748    2.8205    8.7593 H         1 <0>         0.0543
     38 H14         5.4507    5.1309    8.6143 H         1 <0>         0.0575
     39 H15         6.2963    4.7303    7.1002 H         1 <0>         0.0587
     40 H16         5.1727    6.1097    7.1539 H         1 <0>         0.0571
@<TRIPOS>BOND
     1    1    2 1
     2    1   25 1
     3    1   26 1
     4    1   27 1
     5    2    7 ar
     6    2    3 ar
     7    3    4 ar
     8    3   28 1
     9    4    5 ar
    10    4   24 1
    11    5    6 ar
    12    5   29 1
    13    6    7 ar
    14    6   30 1
    15    7    8 1
    16    8    9 2
    17    8   10 2
    18    8   11 1
    19   11   12 1
    20   12   16 1
    21   12   13 2
    22   13   14 1
    23   14   21 1
    24   14   15 2
    25   15   16 1
    26   15   17 1
    27   17   18 2
    28   17   19 1
    29   19   20 1
    30   19   31 1
    31   19   32 1
    32   20   21 1
    33   20   22 1
    34   20   23 1
    35   21   33 1
    36   21   34 1
    37   22   35 1
    38   22   36 1
    39   22   37 1
    40   23   38 1
    41   23   39 1
    42   23   40 1
@<TRIPOS>MOLECULE
ZINC16931987
   49    51     0     0     0
SMALL
USER_CHARGES
2-[[(5Z)-3-ethyl-5-[[4-[(1S)-2-hydroxy-1-methyl-2-oxo-ethoxy]phenyl]methylene]-4-oxo-thiazolidin-2-ylidene]amino]benzoic acid
@<TRIPOS>ATOM
      1 C1          1.4699   -0.5277   -2.7648 C.3       1 <0>        -0.1682
      2 C2          1.9407   -0.1336   -1.3635 C.3       1 <0>         0.1071
      3 N1          2.5183    1.2122   -1.4029 N.am      1 <0>        -0.5364
      4 C3          3.8103    1.3628   -1.6408 C.2       1 <0>         0.5614
      5 O1          4.5384    0.4059   -1.8294 O.2       1 <0>        -0.5078
      6 C4          4.3289    2.7437   -1.6666 C.2       1 <0>        -0.2207
      7 C5          5.5943    3.1849   -1.8837 C.2       1 <0>         0.0663
      8 C6          5.8577    4.6234   -2.0157 C.ar      1 <0>        -0.1474
      9 C7          4.8241    5.4971   -2.3757 C.ar      1 <0>        -0.0489
     10 C8          5.0754    6.8456   -2.4919 C.ar      1 <0>        -0.1585
     11 C9          6.3550    7.3389   -2.2648 C.ar      1 <0>         0.1687
     12 C10         7.3861    6.4756   -1.9128 C.ar      1 <0>        -0.2256
     13 C11         7.1448    5.1260   -1.7877 C.ar      1 <0>        -0.0404
     14 O2          6.5986    8.6691   -2.3868 O.3       1 <0>        -0.2787
     15 C12         7.9140    9.1205   -2.0583 C.3       1 <0>         0.0351
     16 H1          8.2921    8.5512   -1.2092 H         1 <0>         0.0758
     17 C13         8.8381    8.9173   -3.2607 C.3       1 <0>        -0.1568
     18 C14         7.8684   10.5840   -1.7016 C.2       1 <0>         0.4737
     19 O3          6.8172   11.1793   -1.7261 O.co2     1 <0>        -0.6119
     20 S1          2.8429    3.6791   -1.3345 S.3       1 <0>        -0.0413
     21 C15         1.7107    2.3060   -1.1915 C.2       1 <0>         0.3680
     22 N2          0.4162    2.3336   -0.9486 N.2       1 <0>        -0.3899
     23 C16        -0.1868    3.5041   -0.6058 C.ar      1 <0>         0.1151
     24 C17         0.3094    4.2683    0.4550 C.ar      1 <0>        -0.1542
     25 C18        -0.3015    5.4549    0.7929 C.ar      1 <0>        -0.1043
     26 C19        -1.4178    5.8969    0.0964 C.ar      1 <0>        -0.1417
     27 C20        -1.9283    5.1592   -0.9481 C.ar      1 <0>        -0.0674
     28 C21        -1.3220    3.9541   -1.3145 C.ar      1 <0>        -0.0998
     29 C22        -1.8619    3.1617   -2.4293 C.2       1 <0>         0.4879
     30 O4         -1.3306    2.1146   -2.7441 O.co2     1 <0>        -0.6064
     31 H2          1.0402   -1.5290   -2.7355 H         1 <0>         0.0680
     32 H3          0.7163    0.1812   -3.1078 H         1 <0>         0.0820
     33 H4          2.3179   -0.5162   -3.4496 H         1 <0>         0.0520
     34 H5          2.6943   -0.8425   -1.0205 H         1 <0>         0.0865
     35 H6          1.0927   -0.1451   -0.6787 H         1 <0>         0.0955
     36 H7          6.4072    2.4779   -1.9594 H         1 <0>         0.1515
     37 H8          3.8307    5.1142   -2.5571 H         1 <0>         0.1415
     38 H9          4.2780    7.5209   -2.7651 H         1 <0>         0.1371
     39 H10         8.3784    6.8643   -1.7376 H         1 <0>         0.1359
     40 H11         7.9465    4.4562   -1.5138 H         1 <0>         0.1284
     41 H12         8.4600    9.4866   -4.1099 H         1 <0>         0.0603
     42 H13         9.8414    9.2616   -3.0102 H         1 <0>         0.0781
     43 H14         8.8711    7.8588   -3.5188 H         1 <0>         0.0516
     44 H15         1.1746    3.9302    1.0060 H         1 <0>         0.1207
     45 H16         0.0880    6.0443    1.6098 H         1 <0>         0.1205
     46 H17        -1.8896    6.8273    0.3758 H         1 <0>         0.1193
     47 H18        -2.7973    5.5114   -1.4840 H         1 <0>         0.1352
     48 O5          8.9955   11.2261   -1.3566 O.co2     1 <0>        -0.7553
     49 O6         -2.9461    3.5964   -3.1023 O.co2     1 <0>        -0.7619
@<TRIPOS>BOND
     1    1    2 1
     2    1   31 1
     3    1   32 1
     4    1   33 1
     5    2    3 1
     6    2   34 1
     7    2   35 1
     8    3   21 1
     9    3    4 am
    10    4    5 2
    11    4    6 1
    12    6    7 2
    13    6   20 1
    14    7    8 1
    15    7   36 1
    16    8   13 ar
    17    8    9 ar
    18    9   10 ar
    19    9   37 1
    20   10   11 ar
    21   10   38 1
    22   11   12 ar
    23   11   14 1
    24   12   13 ar
    25   12   39 1
    26   13   40 1
    27   14   15 1
    28   15   16 1
    29   15   17 1
    30   15   18 1
    31   17   41 1
    32   17   42 1
    33   17   43 1
    34   18   19 2
    35   18   48 1
    36   20   21 1
    37   21   22 2
    38   22   23 1
    39   23   28 ar
    40   23   24 ar
    41   24   25 ar
    42   24   44 1
    43   25   26 ar
    44   25   45 1
    45   26   27 ar
    46   26   46 1
    47   27   28 ar
    48   27   47 1
    49   28   29 1
    50   29   30 2
    51   29   49 1
@<TRIPOS>MOLECULE
ZINC16428429
   37    39     0     0     0
SMALL
USER_CHARGES
1-(3,4-dichlorophenyl)-3-[4-[(2-thioxo-3H-1,3,4-thiadiazol-5-yl)sulfamoyl]phenyl]urea
@<TRIPOS>ATOM
      1 C1          5.2173    2.7879   -3.8603 C.ar      1 <0>        -0.1535
      2 C2          4.8315    3.3453   -2.6569 C.ar      1 <0>        -0.0138
      3 C3          4.6200    2.5370   -1.5551 C.ar      1 <0>        -0.6606
      4 C4          4.7989    1.1693   -1.6527 C.ar      1 <0>         0.0193
      5 C5          5.1795    0.6052   -2.8546 C.ar      1 <0>        -0.1696
      6 C6          5.3927    1.4142   -3.9629 C.ar      1 <0>         0.1806
      7 N1          5.7831    0.8463   -5.1809 N.am      1 <0>        -0.6859
      8 C7          5.3417    1.3709   -6.3412 C.2       1 <0>         0.7060
      9 O1          4.6735    2.3867   -6.3339 O.2       1 <0>        -0.5523
     10 N2          5.6410    0.7695   -7.5097 N.am      1 <0>        -0.6973
     11 C8          5.2661    1.3653   -8.7197 C.ar      1 <0>         0.1979
     12 C9          4.0709    2.0670   -8.8085 C.ar      1 <0>        -0.1048
     13 C10         3.7058    2.6594  -10.0014 C.ar      1 <0>        -0.0755
     14 C11         4.5238    2.5444  -11.1115 C.ar      1 <0>        -0.0524
     15 C12         5.7132    1.8402  -11.0279 C.ar      1 <0>        -0.0114
     16 C13         6.0858    1.2508   -9.8342 C.ar      1 <0>        -0.1346
     17 Cl1         6.7371    1.6979  -12.4225 Cl        1 <0>        -0.0531
     18 Cl2         4.0586    3.2847  -12.6113 Cl        1 <0>        -0.0570
     19 S1          4.1284    3.2520   -0.0216 S.o2      1 <0>         2.6097
     20 O2          4.5638    4.6045   -0.0460 O.2       1 <0>        -1.0033
     21 O3          4.5242    2.3425    0.9960 O.2       1 <0>        -1.0156
     22 N3          2.4729    3.2880   -0.0064 N.2       1 <0>        -1.0003
     23 C14         1.7530    2.1016   -0.0057 C.2       1 <0>         0.3835
     24 N4          2.1948    0.8708   -0.0157 N.2       1 <0>        -0.4413
     25 N5          1.3151   -0.1873   -0.0129 N.2       1 <0>        -0.3565
     26 C15        -0.0162    0.0741    0.0004 C.2       1 <0>         0.2501
     27 S2         -1.3382   -1.0137    0.0070 S.3       1 <0>        -0.7511
     28 S3         -0.0162    1.8604    0.0091 S.3       1 <0>        -0.2114
     29 H1          5.3827    3.4198   -4.7203 H         1 <0>         0.1350
     30 H2          4.6946    4.4136   -2.5765 H         1 <0>         0.1335
     31 H3          4.6369    0.5411   -0.7893 H         1 <0>         0.1515
     32 H4          5.3147   -0.4636   -2.9314 H         1 <0>         0.1235
     33 H5          6.4502   -0.0283   -5.1912 H         1 <0>         0.4272
     34 H6          6.1799   -0.1895   -7.5125 H         1 <0>         0.4330
     35 H7          3.4296    2.1535   -7.9438 H         1 <0>         0.1597
     36 H8          2.7785    3.2088  -10.0693 H         1 <0>         0.1467
     37 H9          7.0134    0.7016   -9.7689 H         1 <0>         0.1440
@<TRIPOS>BOND
     1    1    6 ar
     2    1    2 ar
     3    1   29 1
     4    2    3 ar
     5    2   30 1
     6    3    4 ar
     7    3   19 1
     8    4    5 ar
     9    4   31 1
    10    5    6 ar
    11    5   32 1
    12    6    7 1
    13    7    8 am
    14    7   33 1
    15    8    9 2
    16    8   10 am
    17   10   11 1
    18   10   34 1
    19   11   16 ar
    20   11   12 ar
    21   12   13 ar
    22   12   35 1
    23   13   14 ar
    24   13   36 1
    25   14   15 ar
    26   14   18 1
    27   15   16 ar
    28   15   17 1
    29   16   37 1
    30   19   20 2
    31   19   21 2
    32   19   22 1
    33   22   23 1
    34   23   28 1
    35   23   24 2
    36   24   25 1
    37   25   26 2
    38   26   27 1
    39   26   28 1
@<TRIPOS>MOLECULE
ZINC13213767
   54    59     0     0     0
SMALL
USER_CHARGES

@<TRIPOS>ATOM
      1 C1         -0.1111    1.3054   -0.1065 C.ar      1 <0>        -0.1313
      2 C2          1.0632    2.0561   -0.1026 C.ar      1 <0>        -0.1294
      3 C3          2.2820    1.4505   -0.0942 C.ar      1 <0>        -0.1024
      4 C4          2.3613    0.0474   -0.0887 C.ar      1 <0>        -0.0448
      5 C5          3.6015   -0.6136   -0.0794 C.ar      1 <0>        -0.1152
      6 C6          3.6394   -1.9740   -0.0740 C.ar      1 <0>        -0.0501
      7 C7          2.4651   -2.7247   -0.0775 C.ar      1 <0>        -0.0695
      8 C8          1.2464   -2.1191   -0.0864 C.ar      1 <0>        -0.1143
      9 C9          1.1672   -0.7159   -0.0922 C.ar      1 <0>        -0.0513
     10 C10        -0.0730   -0.0550   -0.1015 C.ar      1 <0>        -0.1014
     11 C11         4.9712   -2.6793   -0.0645 C.3       1 <0>         0.2576
     12 H1          5.7652   -1.9767    0.1883 H         1 <0>         0.0758
     13 C12         5.2389   -3.3020   -1.4148 C.2       1 <0>        -0.5081
     14 C13         5.3546   -4.6358   -1.2137 C.2       1 <0>         0.2774
     15 C14         5.1737   -4.9275    0.2231 C.2       1 <0>         0.4999
     16 O1          5.2214   -6.0349    0.7211 O.2       1 <0>        -0.4948
     17 N1          4.9498   -3.7851    0.9002 N.am      1 <0>        -0.5498
     18 C15         4.7350   -3.6718    2.2768 C.ar      1 <0>         0.1635
     19 C16         4.5095   -2.4227    2.8448 C.ar      1 <0>        -0.1647
     20 C17         4.2966   -2.3046    4.2054 C.ar      1 <0>        -0.1166
     21 C18         4.3057   -3.4256    5.0101 C.ar      1 <0>        -0.1177
     22 C19         4.5307   -4.6857    4.4500 C.ar      1 <0>        -0.1111
     23 C20         4.7411   -4.8052    3.0748 C.ar      1 <0>        -0.1203
     24 C21         4.5416   -5.8862    5.3079 C.2       1 <0>         0.5219
     25 O2          4.3533   -5.7793    6.5115 O.co2     1 <0>        -0.6974
     26 O3          4.7388   -6.9880    4.8152 O.co2     1 <0>        -0.6806
     27 O4          5.5968   -5.5556   -2.1759 O.3       1 <0>        -0.6477
     28 C22         5.3513   -2.5979   -2.6957 C.2       1 <0>         0.5117
     29 O5          4.5227   -2.7844   -3.5674 O.2       1 <0>        -0.4694
     30 C23         6.4694   -1.6626   -2.9282 C.ar      1 <0>        -0.1240
     31 C24         7.4891   -1.5398   -1.9797 C.ar      1 <0>        -0.0503
     32 C25         8.5315   -0.6667   -2.1985 C.ar      1 <0>        -0.1132
     33 C26         8.5740    0.0946   -3.3596 C.ar      1 <0>         0.0413
     34 C27         7.5587   -0.0232   -4.3107 C.ar      1 <0>         0.0095
     35 C28         6.5143   -0.9015   -4.1000 C.ar      1 <0>        -0.0535
     36 O6          7.8325    0.8232   -5.3465 O.3       1 <0>        -0.3111
     37 C29         8.8036    1.7547   -4.8343 C.3       1 <0>         0.2132
     38 O7          9.4796    1.0126   -3.8023 O.3       1 <0>        -0.3113
     39 H2         -1.0655    1.8108   -0.1089 H         1 <0>         0.1140
     40 H3          1.0051    3.1345   -0.1068 H         1 <0>         0.1141
     41 H4          3.1836    2.0451   -0.0920 H         1 <0>         0.1212
     42 H5          4.5197   -0.0449   -0.0770 H         1 <0>         0.1246
     43 H6          2.5232   -3.8031   -0.0734 H         1 <0>         0.1199
     44 H7          0.3448   -2.7137   -0.0894 H         1 <0>         0.1232
     45 H8         -0.9912   -0.6237   -0.1042 H         1 <0>         0.1208
     46 H9          4.5011   -1.5414    2.2205 H         1 <0>         0.1152
     47 H10         4.1228   -1.3315    4.6403 H         1 <0>         0.1115
     48 H11         4.1392   -3.3288    6.0728 H         1 <0>         0.1205
     49 H12         4.9119   -5.7767    2.6351 H         1 <0>         0.1571
     50 H13         7.4593   -2.1294   -1.0753 H         1 <0>         0.1531
     51 H14         9.3183   -0.5733   -1.4646 H         1 <0>         0.1374
     52 H15         5.7308   -0.9968   -4.8371 H         1 <0>         0.1414
     53 H16         9.5037    2.0470   -5.6169 H         1 <0>         0.1258
     54 H17         8.3093    2.6308   -4.4145 H         1 <0>         0.0796
@<TRIPOS>BOND
     1    1   10 ar
     2    1    2 ar
     3    1   39 1
     4    2    3 ar
     5    2   40 1
     6    3    4 ar
     7    3   41 1
     8    4    9 ar
     9    4    5 ar
    10    5    6 ar
    11    5   42 1
    12    6    7 ar
    13    6   11 1
    14    7    8 ar
    15    7   43 1
    16    8    9 ar
    17    8   44 1
    18    9   10 ar
    19   10   45 1
    20   11   12 1
    21   11   17 1
    22   11   13 1
    23   13   14 2
    24   13   28 1
    25   14   15 1
    26   14   27 1
    27   15   16 2
    28   15   17 am
    29   17   18 1
    30   18   23 ar
    31   18   19 ar
    32   19   20 ar
    33   19   46 1
    34   20   21 ar
    35   20   47 1
    36   21   22 ar
    37   21   48 1
    38   22   23 ar
    39   22   24 1
    40   23   49 1
    41   24   25 2
    42   24   26 1
    43   28   29 2
    44   28   30 1
    45   30   35 ar
    46   30   31 ar
    47   31   32 ar
    48   31   50 1
    49   32   33 ar
    50   32   51 1
    51   33   38 1
    52   33   34 ar
    53   34   35 ar
    54   34   36 1
    55   35   52 1
    56   36   37 1
    57   37   38 1
    58   37   53 1
    59   37   54 1
@<TRIPOS>MOLECULE
ZINC43511053
   77    81     0     0     0
SMALL
USER_CHARGES

@<TRIPOS>ATOM
      1 C1         -0.6530    0.9135    2.2777 C.3       1 <0>        -0.1238
      2 C2         -0.5673   -0.5549    1.9500 C.2       1 <0>        -0.0830
      3 C3         -0.6174   -1.4444    2.9104 C.2       1 <0>        -0.2322
      4 C4         -0.4233   -1.0019    0.5115 C.3       1 <0>        -0.0602
      5 H1         -0.3660   -2.0848    0.4801 H         1 <0>         0.1026
      6 C5          0.8576   -0.3775   -0.0847 C.3       1 <0>        -0.1100
      7 C6          0.3697    0.8751   -0.8452 C.3       1 <0>        -0.0986
      8 C7         -1.0081    0.4304   -1.4250 C.3       1 <0>        -0.1069
      9 C8         -1.5835   -0.4614   -0.3202 C.3       1 <0>        -0.0394
     10 H2         -2.1483    0.2219    0.3578 H         1 <0>         0.0562
     11 C9         -2.5880   -1.4838   -0.7835 C.3       1 <0>        -0.0338
     12 H3         -3.5039   -0.8990   -0.9959 H         1 <0>         0.0458
     13 C10        -2.9569   -2.4567    0.3340 C.3       1 <0>        -0.1120
     14 C11        -4.1022   -3.3706   -0.1163 C.3       1 <0>        -0.0984
     15 C12        -3.6952   -4.1101   -1.3904 C.3       1 <0>        -0.0784
     16 H4         -2.7572   -4.6541   -1.1318 H         1 <0>         0.1144
     17 C13        -4.6920   -5.1935   -1.7574 C.3       1 <0>        -0.0374
     18 C14        -4.8712   -6.1531   -0.5703 C.3       1 <0>        -0.1030
     19 C15        -3.5857   -6.9389   -0.3221 C.3       1 <0>        -0.1752
     20 C16        -3.3492   -7.7589   -1.5700 C.2       1 <0>         0.3821
     21 O1         -3.2380   -8.9595   -1.5135 O.2       1 <0>        -0.4761
     22 C17        -3.2539   -7.0315   -2.8930 C.3       1 <0>        -0.0924
     23 C18        -4.2848   -5.9295   -3.0209 C.3       1 <0>        -0.0420
     24 H5         -5.2288   -6.4566   -3.3556 H         1 <0>         0.0445
     25 C19        -3.9670   -4.9633   -4.1540 C.3       1 <0>        -0.0973
     26 C20        -3.0090   -3.8420   -3.7965 C.3       1 <0>        -0.1100
     27 C21        -3.3722   -3.1255   -2.5017 C.3       1 <0>        -0.0047
     28 C22        -2.1981   -2.2307   -2.0510 C.3       1 <0>        -0.0973
     29 C23        -1.8780   -1.2081   -3.1446 C.3       1 <0>        -0.0793
     30 C24        -0.7016   -0.3423   -2.7060 C.3       1 <0>        -0.0890
     31 C25        -0.9758   -3.0821   -1.8135 C.2       1 <0>         0.5281
     32 O2         -0.9361   -3.8385   -0.8581 O.co2     1 <0>        -0.6968
     33 O3         -0.0276   -3.0138   -2.5769 O.co2     1 <0>        -0.6979
     34 C26        -4.5577   -2.1964   -2.8107 C.3       1 <0>        -0.1546
     35 C27        -3.5186   -8.0782   -4.0006 C.3       1 <0>        -0.1351
     36 C28        -1.8157   -6.5395   -3.0620 C.3       1 <0>        -0.1432
     37 C29        -6.1058   -4.6159   -1.9818 C.3       1 <0>        -0.1515
     38 C30        -1.8947    1.6280   -1.6985 C.2       1 <0>         0.5124
     39 O4         -1.5443    2.4751   -2.5023 O.co2     1 <0>        -0.7122
     40 O5         -2.9587    1.7447   -1.1147 O.co2     1 <0>        -0.7014
     41 H6          0.3493    1.3072    2.4468 H         1 <0>         0.0561
     42 H7         -1.1166    1.4448    1.4465 H         1 <0>         0.0781
     43 H8         -1.2536    1.0507    3.1769 H         1 <0>         0.0490
     44 H9         -0.7201   -1.1253    3.9371 H         1 <0>         0.0800
     45 H10        -0.5559   -2.4968    2.6755 H         1 <0>         0.0953
     46 H11         1.5408   -0.0919    0.7129 H         1 <0>         0.0407
     47 H12         1.3364   -1.0745   -0.7675 H         1 <0>         0.0672
     48 H13         0.2446    1.7154   -0.1639 H         1 <0>         0.0458
     49 H14         1.0584    1.1296   -1.6492 H         1 <0>         0.0500
     50 H15        -2.1007   -3.0627    0.6185 H         1 <0>         0.0962
     51 H16        -3.2896   -1.8878    1.2084 H         1 <0>         0.0267
     52 H17        -4.2899   -4.0965    0.6806 H         1 <0>         0.0416
     53 H18        -4.9987   -2.7789   -0.2698 H         1 <0>         0.0433
     54 H19        -5.1503   -5.5920    0.3162 H         1 <0>         0.0792
     55 H20        -5.6785   -6.8512   -0.8142 H         1 <0>         0.0504
     56 H21        -2.7521   -6.2656   -0.1472 H         1 <0>         0.1191
     57 H22        -3.7140   -7.6016    0.5347 H         1 <0>         0.0772
     58 H23        -3.5544   -5.5227   -5.0076 H         1 <0>         0.0489
     59 H24        -4.9089   -4.5260   -4.5236 H         1 <0>         0.0494
     60 H25        -1.9815   -4.1739   -3.8149 H         1 <0>         0.0787
     61 H26        -3.0800   -3.0841   -4.6102 H         1 <0>         0.0413
     62 H27        -1.6096   -1.7340   -4.0649 H         1 <0>         0.0424
     63 H28        -2.7306   -0.5607   -3.3410 H         1 <0>         0.0373
     64 H29        -0.5038    0.3888   -3.5049 H         1 <0>         0.0292
     65 H30         0.1981   -0.9351   -2.5825 H         1 <0>         0.0790
     66 H31        -4.9634   -1.8028   -1.8787 H         1 <0>         0.0539
     67 H32        -4.2187   -1.3709   -3.4367 H         1 <0>         0.0546
     68 H33        -5.3313   -2.7567   -3.3358 H         1 <0>         0.0419
     69 H34        -4.5118   -8.5065   -3.8659 H         1 <0>         0.0476
     70 H35        -3.4598   -7.5969   -4.9769 H         1 <0>         0.0586
     71 H36        -2.7707   -8.8688   -3.9397 H         1 <0>         0.0585
     72 H37        -1.1365   -7.3919   -3.0522 H         1 <0>         0.0449
     73 H38        -1.7217   -6.0108   -4.0105 H         1 <0>         0.0708
     74 H39        -1.5640   -5.8650   -2.2436 H         1 <0>         0.0929
     75 H40        -6.1256   -4.0567   -2.9172 H         1 <0>         0.0642
     76 H41        -6.8278   -5.4310   -2.0304 H         1 <0>         0.0387
     77 H42        -6.3623   -3.9521   -1.1562 H         1 <0>         0.0582
@<TRIPOS>BOND
     1    1    2 1
     2    1   41 1
     3    1   42 1
     4    1   43 1
     5    2    3 2
     6    2    4 1
     7    3   44 1
     8    3   45 1
     9    4    5 1
    10    4    9 1
    11    4    6 1
    12    6    7 1
    13    6   46 1
    14    6   47 1
    15    7    8 1
    16    7   48 1
    17    7   49 1
    18    8   30 1
    19    8    9 1
    20    8   38 1
    21    9   10 1
    22    9   11 1
    23   11   12 1
    24   11   28 1
    25   11   13 1
    26   13   14 1
    27   13   50 1
    28   13   51 1
    29   14   15 1
    30   14   52 1
    31   14   53 1
    32   15   16 1
    33   15   27 1
    34   15   17 1
    35   17   23 1
    36   17   18 1
    37   17   37 1
    38   18   19 1
    39   18   54 1
    40   18   55 1
    41   19   20 1
    42   19   56 1
    43   19   57 1
    44   20   21 2
    45   20   22 1
    46   22   23 1
    47   22   35 1
    48   22   36 1
    49   23   24 1
    50   23   25 1
    51   25   26 1
    52   25   58 1
    53   25   59 1
    54   26   27 1
    55   26   60 1
    56   26   61 1
    57   27   28 1
    58   27   34 1
    59   28   29 1
    60   28   31 1
    61   29   30 1
    62   29   62 1
    63   29   63 1
    64   30   64 1
    65   30   65 1
    66   31   32 2
    67   31   33 1
    68   34   66 1
    69   34   67 1
    70   34   68 1
    71   35   69 1
    72   35   70 1
    73   35   71 1
    74   36   72 1
    75   36   73 1
    76   36   74 1
    77   37   75 1
    78   37   76 1
    79   37   77 1
    80   38   39 2
    81   38   40 1
@<TRIPOS>MOLECULE
ZINC15911110
   47    50     0     0     0
SMALL
USER_CHARGES

@<TRIPOS>ATOM
      1 C1         -0.2252    0.7979   -0.3681 C.ar      1 <0>        -0.0873
      2 C2          0.8579    1.6530   -0.2841 C.ar      1 <0>        -0.1171
      3 C3          2.1381    1.1399   -0.1935 C.ar      1 <0>        -0.0339
      4 C4          2.3355   -0.2285   -0.1864 C.ar      1 <0>        -0.5846
      5 C5          1.2526   -1.0833   -0.2695 C.ar      1 <0>        -0.0822
      6 C6         -0.0279   -0.5700   -0.3616 C.ar      1 <0>        -0.1009
      7 C7          1.4678   -2.5749   -0.2628 C.3       1 <0>         0.4723
      8 F1          0.2324   -3.2247   -0.3557 F         1 <0>        -0.1887
      9 F2          2.2675   -2.9355   -1.3526 F         1 <0>        -0.1403
     10 F3          2.1033   -2.9490    0.9260 F         1 <0>        -0.1354
     11 S1          3.9675   -0.8826   -0.0721 S.o2      1 <0>         2.6129
     12 O1          4.0861   -1.8598   -1.0969 O.2       1 <0>        -0.9885
     13 O2          4.8454    0.2306    0.0243 O.2       1 <0>        -1.0083
     14 N1          4.0705   -1.6927    1.3686 N.2       1 <0>        -1.0512
     15 C8          5.2549   -2.3167    1.7300 C.ar      1 <0>         0.4195
     16 C9          5.3364   -3.0129    2.9599 C.ar      1 <0>         0.3812
     17 N2          6.4552   -3.6098    3.3150 N.ar      1 <0>        -0.4926
     18 C10         7.5239   -3.5579    2.5065 C.ar      1 <0>         0.0498
     19 C11         8.7278   -4.1868    2.8626 C.ar      1 <0>        -0.0724
     20 C12         9.7992   -4.1202    2.0243 C.ar      1 <0>        -0.1503
     21 C13         9.7191   -3.4353    0.8146 C.ar      1 <0>        -0.1218
     22 C14         8.5673   -2.8135    0.4378 C.ar      1 <0>        -0.1047
     23 C15         7.4425   -2.8618    1.2768 C.ar      1 <0>         0.1104
     24 N3          6.2953   -2.2626    0.9246 N.ar      1 <0>        -0.5708
     25 N4          4.2305   -3.0662    3.7969 N.pl3     1 <0>        -0.6282
     26 C16         4.2674   -3.8435    4.9489 C.ar      1 <0>         0.1639
     27 C17         3.5749   -3.4339    6.0858 C.ar      1 <0>        -0.1759
     28 C18         3.6089   -4.1950    7.2195 C.ar      1 <0>        -0.0670
     29 C19         4.3409   -5.3879    7.2377 C.ar      1 <0>        -0.1669
     30 C20         5.0355   -5.7963    6.0933 C.ar      1 <0>        -0.0653
     31 C21         4.9922   -5.0328    4.9615 C.ar      1 <0>        -0.1358
     32 C22         4.3804   -6.2105    8.4573 C.2       1 <0>         0.5247
     33 O3          3.7729   -5.8519    9.4570 O.co2     1 <0>        -0.7001
     34 O4          5.0207   -7.2530    8.4716 O.co2     1 <0>        -0.6972
     35 H1         -1.2258    1.1988   -0.4344 H         1 <0>         0.1345
     36 H2          0.7038    2.7220   -0.2896 H         1 <0>         0.1346
     37 H3          2.9842    1.8079   -0.1286 H         1 <0>         0.1485
     38 H4         -0.8740   -1.2380   -0.4273 H         1 <0>         0.1406
     39 H5          8.8040   -4.7212    3.7981 H         1 <0>         0.1232
     40 H6         10.7236   -4.6049    2.3018 H         1 <0>         0.1135
     41 H7         10.5822   -3.3963    0.1665 H         1 <0>         0.1123
     42 H8          8.5192   -2.2858   -0.5033 H         1 <0>         0.1192
     43 H9          3.4318   -2.5611    3.5780 H         1 <0>         0.4259
     44 H10         3.0107   -2.5132    6.0710 H         1 <0>         0.1116
     45 H11         3.0720   -3.8766    8.1008 H         1 <0>         0.1211
     46 H12         5.6016   -6.7160    6.1038 H         1 <0>         0.1208
     47 H13         5.5241   -5.3497    4.0765 H         1 <0>         0.1268
@<TRIPOS>BOND
     1    1    6 ar
     2    1    2 ar
     3    1   35 1
     4    2    3 ar
     5    2   36 1
     6    3    4 ar
     7    3   37 1
     8    4    5 ar
     9    4   11 1
    10    5    6 ar
    11    5    7 1
    12    6   38 1
    13    7    8 1
    14    7    9 1
    15    7   10 1
    16   11   12 2
    17   11   13 2
    18   11   14 1
    19   14   15 1
    20   15   24 ar
    21   15   16 ar
    22   16   17 ar
    23   16   25 1
    24   17   18 ar
    25   18   23 ar
    26   18   19 ar
    27   19   20 ar
    28   19   39 1
    29   20   21 ar
    30   20   40 1
    31   21   22 ar
    32   21   41 1
    33   22   23 ar
    34   22   42 1
    35   23   24 ar
    36   25   26 1
    37   25   43 1
    38   26   31 ar
    39   26   27 ar
    40   27   28 ar
    41   27   44 1
    42   28   29 ar
    43   28   45 1
    44   29   30 ar
    45   29   32 1
    46   30   31 ar
    47   30   46 1
    48   31   47 1
    49   32   33 2
    50   32   34 1
@<TRIPOS>MOLECULE
ZINC13231929
   45    48     0     0     0
SMALL
USER_CHARGES
2-[(3-carboxyphenyl)methylsulfanyl]-3-(2-furylmethyl)-4-oxo-quinazoline-7-carboxylic acid
@<TRIPOS>ATOM
      1 C1          1.5856    0.7796    7.1997 C.ar      1 <0>        -0.1419
      2 C2          2.0651    0.9711    5.9158 C.ar      1 <0>        -0.1015
      3 C3          1.8910    2.1873    5.2797 C.ar      1 <0>        -0.1070
      4 C4          1.2419    3.2199    5.9246 C.ar      1 <0>        -0.0614
      5 C5          0.7510    3.0319    7.2180 C.ar      1 <0>        -0.1159
      6 C6          0.9302    1.8017    7.8541 C.ar      1 <0>        -0.0685
      7 C7          0.0505    4.1314    7.9128 C.2       1 <0>         0.4901
      8 O1         -0.1038    5.2003    7.3570 O.co2     1 <0>        -0.6285
      9 C8          2.4171    2.3866    3.8817 C.3       1 <0>        -0.0481
     10 S1          1.1416    1.9206    2.6850 S.3       1 <0>        -0.0180
     11 C9          2.0008    2.2432    1.1808 C.2       1 <0>         0.3540
     12 N1          3.2302    2.6911    1.2475 N.2       1 <0>        -0.5085
     13 C10         3.9462    2.9651    0.1316 C.ar      1 <0>         0.1446
     14 C11         5.2560    3.4476    0.2051 C.ar      1 <0>        -0.0728
     15 C12         5.9520    3.7144   -0.9671 C.ar      1 <0>        -0.0685
     16 C13         5.3506    3.5026   -2.2146 C.ar      1 <0>        -0.0913
     17 C14         4.0717    3.0321   -2.2986 C.ar      1 <0>        -0.0634
     18 C15         3.3543    2.7576   -1.1347 C.ar      1 <0>        -0.1981
     19 C16         1.9743    2.2484   -1.1796 C.2       1 <0>         0.5584
     20 O2          1.4099    2.0488   -2.2393 O.2       1 <0>        -0.5138
     21 N2          1.3560    2.0099   -0.0001 N.am      1 <0>        -0.5296
     22 C17        -0.0184    1.5028    0.0103 C.3       1 <0>         0.1744
     23 C18         0.0021   -0.0041    0.0020 C.2       1 <0>        -0.0416
     24 C19         0.0286   -0.7964    1.0887 C.2       1 <0>        -0.1763
     25 C20         0.0374   -2.1311    0.6223 C.2       1 <0>        -0.2166
     26 C21         0.0242   -2.0744   -0.7215 C.2       1 <0>        -0.0357
     27 O3          0.0028   -0.7835   -1.0917 O.3       1 <0>        -0.1645
     28 C22         7.3388    4.2253   -0.8977 C.2       1 <0>         0.4895
     29 O4          7.8645    4.4101    0.1813 O.co2     1 <0>        -0.6200
     30 H1          1.7252   -0.1722    7.6906 H         1 <0>         0.1179
     31 H2          2.5778    0.1675    5.4081 H         1 <0>         0.1181
     32 H3          1.1106    4.1702    5.4286 H         1 <0>         0.1303
     33 H4          0.5568    1.6511    8.8562 H         1 <0>         0.1300
     34 H5          3.2994    1.7641    3.7332 H         1 <0>         0.1076
     35 H6          2.6833    3.4340    3.7395 H         1 <0>         0.1094
     36 H7          5.7230    3.6114    1.1651 H         1 <0>         0.1456
     37 H8          5.9033    3.7142   -3.1179 H         1 <0>         0.1409
     38 H9          3.6166    2.8720   -3.2649 H         1 <0>         0.1316
     39 H10        -0.5455    1.8639   -0.8728 H         1 <0>         0.1173
     40 H11        -0.5286    1.8543    0.9071 H         1 <0>         0.1284
     41 H12         0.0387   -0.4748    2.1197 H         1 <0>         0.1598
     42 H13         0.0558   -3.0246    1.2287 H         1 <0>         0.1495
     43 H14         0.0295   -2.9230   -1.3896 H         1 <0>         0.2011
     44 O5         -0.4170    3.9485    9.1629 O.co2     1 <0>        -0.7580
     45 O6          8.0181    4.4855   -2.0312 O.co2     1 <0>        -0.7491
@<TRIPOS>BOND
     1    1    6 ar
     2    1    2 ar
     3    1   30 1
     4    2    3 ar
     5    2   31 1
     6    3    4 ar
     7    3    9 1
     8    4    5 ar
     9    4   32 1
    10    5    6 ar
    11    5    7 1
    12    6   33 1
    13    7    8 2
    14    7   44 1
    15    9   10 1
    16    9   34 1
    17    9   35 1
    18   10   11 1
    19   11   21 1
    20   11   12 2
    21   12   13 1
    22   13   18 ar
    23   13   14 ar
    24   14   15 ar
    25   14   36 1
    26   15   16 ar
    27   15   28 1
    28   16   17 ar
    29   16   37 1
    30   17   18 ar
    31   17   38 1
    32   18   19 1
    33   19   20 2
    34   19   21 am
    35   21   22 1
    36   22   23 1
    37   22   39 1
    38   22   40 1
    39   23   27 1
    40   23   24 2
    41   24   25 1
    42   24   41 1
    43   25   26 2
    44   25   42 1
    45   26   27 1
    46   26   43 1
    47   28   29 2
    48   28   45 1
@<TRIPOS>MOLECULE
ZINC35675021
   48    50     0     0     0
SMALL
USER_CHARGES

@<TRIPOS>ATOM
      1 C1          1.5244   -2.3831    0.7333 C.3       1 <0>        -0.1454
      2 C2          0.6859   -2.2763   -0.5420 C.3       1 <0>         0.0829
      3 C3          1.3462   -3.0908   -1.6562 C.3       1 <0>        -0.1687
      4 O1         -0.6261   -2.7853   -0.2934 O.3       1 <0>        -0.3455
      5 C4         -1.6237   -2.3144   -1.0714 C.2       1 <0>         0.5717
      6 O2         -1.3728   -1.5578   -1.9910 O.2       1 <0>        -0.5108
      7 C5         -2.9591   -2.7000   -0.8181 C.2       1 <0>        -0.3368
      8 C6         -3.4541   -3.8780   -1.2950 C.2       1 <0>         0.1637
      9 N1         -4.7120   -4.2357   -1.0534 N.2       1 <0>        -0.5921
     10 C7         -5.5674   -3.5300   -0.3659 C.2       1 <0>         0.2898
     11 N2         -5.2707   -2.3158    0.2001 N.pl3     1 <0>        -0.5049
     12 C8         -3.8843   -1.8222   -0.0037 C.3       1 <0>         0.2872
     13 H1         -3.4297   -1.6717    0.9754 H         1 <0>         0.0782
     14 C9         -3.9689   -0.4796   -0.6830 C.ar      1 <0>        -0.0989
     15 C10        -4.9699   -0.2319   -1.6025 C.ar      1 <0>        -0.0440
     16 C11        -5.0478    0.9994   -2.2264 C.ar      1 <0>        -0.1526
     17 C12        -4.1248    1.9860   -1.9317 C.ar      1 <0>        -0.0870
     18 C13        -3.1225    1.7435   -1.0128 C.ar      1 <0>        -0.2080
     19 C14        -3.0453    0.5103   -0.3814 C.ar      1 <0>         0.1459
     20 O3         -2.0633    0.2711    0.5271 O.3       1 <0>        -0.3134
     21 C15        -1.2131    1.3681    0.8675 C.3       1 <0>         0.0317
     22 C16        -6.2850   -1.7094    0.8889 C.2       1 <0>         0.2234
     23 C17        -7.5668   -2.4171    0.9463 C.2       1 <0>        -0.5011
     24 S1         -7.2676   -3.8181    0.0690 S.3       1 <0>         0.1922
     25 C18        -6.1091   -0.4873    1.5020 C.2       1 <0>        -0.4310
     26 C19        -7.1275    0.0418    2.3317 C.2       1 <0>         0.4943
     27 O4         -8.1987   -0.6970    2.6267 O.co2     1 <0>        -0.7449
     28 O5         -7.0159    1.2790    2.8185 O.co2     1 <0>        -0.7843
     29 C20        -2.5650   -4.7851   -2.1059 C.3       1 <0>         0.5191
     30 F1         -1.2638   -4.2714   -2.1205 F         1 <0>        -0.1674
     31 F2         -2.5558   -6.0619   -1.5343 F         1 <0>        -0.1708
     32 F3         -3.0499   -4.8640   -3.4158 F         1 <0>        -0.1736
     33 H2          2.5489   -2.0775    0.5212 H         1 <0>         0.0679
     34 H3          1.1030   -1.7336    1.5006 H         1 <0>         0.0628
     35 H4          1.5186   -3.4142    1.0868 H         1 <0>         0.0643
     36 H5          0.6187   -1.2318   -0.8463 H         1 <0>         0.0732
     37 H6          0.7488   -3.0147   -2.5647 H         1 <0>         0.0645
     38 H7          2.3469   -2.7025   -1.8458 H         1 <0>         0.0612
     39 H8          1.4134   -4.1352   -1.3519 H         1 <0>         0.0607
     40 H9         -5.6920   -1.0008   -1.8344 H         1 <0>         0.1167
     41 H10        -5.8306    1.1908   -2.9453 H         1 <0>         0.1169
     42 H11        -4.1876    2.9470   -2.4206 H         1 <0>         0.1159
     43 H12        -2.4018    2.5144   -0.7830 H         1 <0>         0.1198
     44 H13        -0.4268    1.0236    1.5391 H         1 <0>         0.0909
     45 H14        -0.7645    1.7749   -0.0388 H         1 <0>         0.0485
     46 H15        -1.7996    2.1426    1.3618 H         1 <0>         0.0544
     47 H16        -8.4811   -2.1123    1.4337 H         1 <0>         0.2130
     48 H17        -5.1946    0.0667    1.3495 H         1 <0>         0.0704
@<TRIPOS>BOND
     1    1    2 1
     2    1   33 1
     3    1   34 1
     4    1   35 1
     5    2    3 1
     6    2    4 1
     7    2   36 1
     8    3   37 1
     9    3   38 1
    10    3   39 1
    11    4    5 1
    12    5    6 2
    13    5    7 1
    14    7   12 1
    15    7    8 2
    16    8    9 1
    17    8   29 1
    18    9   10 2
    19   10   24 1
    20   10   11 1
    21   11   12 1
    22   11   22 1
    23   12   13 1
    24   12   14 1
    25   14   19 ar
    26   14   15 ar
    27   15   16 ar
    28   15   40 1
    29   16   17 ar
    30   16   41 1
    31   17   18 ar
    32   17   42 1
    33   18   19 ar
    34   18   43 1
    35   19   20 1
    36   20   21 1
    37   21   44 1
    38   21   45 1
    39   21   46 1
    40   22   23 2
    41   22   25 1
    42   23   24 1
    43   23   47 1
    44   25   26 2
    45   25   48 1
    46   26   27 1
    47   26   28 1
    48   29   30 1
    49   29   31 1
    50   29   32 1
@<TRIPOS>MOLECULE
ZINC13213023
   52    55     0     0     0
SMALL
USER_CHARGES

@<TRIPOS>ATOM
      1 C1          0.5438    0.9737    0.9630 C.3       1 <0>        -0.1087
      2 C2          0.3289   -0.4940    0.6970 C.ar      1 <0>        -0.0915
      3 C3         -0.9387   -1.0371    0.8149 C.ar      1 <0>        -0.1264
      4 C4         -1.1424   -2.3794    0.5730 C.ar      1 <0>        -0.0797
      5 C5         -0.0660   -3.1911    0.2078 C.ar      1 <0>        -0.1062
      6 C6          1.2100   -2.6365    0.0903 C.ar      1 <0>        -0.0558
      7 C7          1.3988   -1.2913    0.3305 C.ar      1 <0>        -0.1259
      8 C8          2.3775   -3.5046   -0.3026 C.3       1 <0>        -0.1190
      9 C9         -0.2768   -4.6312   -0.0527 C.2       1 <0>         0.4651
     10 O1         -0.4648   -5.3961    0.8747 O.2       1 <0>        -0.4894
     11 C10        -0.2592   -5.1374   -1.4278 C.2       1 <0>        -0.4819
     12 C11        -0.3323   -6.4337   -1.8125 C.2       1 <0>         0.2915
     13 C12        -0.2822   -6.5059   -3.2874 C.2       1 <0>         0.4962
     14 O2         -0.3276   -7.5316   -3.9373 O.2       1 <0>        -0.4920
     15 N1         -0.1795   -5.2682   -3.8047 N.am      1 <0>        -0.5475
     16 C13        -0.1627   -4.3131   -2.6904 C.3       1 <0>         0.2461
     17 H1          0.7690   -3.7475   -2.6984 H         1 <0>         0.0783
     18 C14        -1.3392   -3.3765   -2.7891 C.ar      1 <0>        -0.0283
     19 C15        -2.5923   -3.8752   -3.0981 C.ar      1 <0>        -0.0932
     20 C16        -3.6736   -3.0235   -3.1899 C.ar      1 <0>        -0.0664
     21 C17        -3.5013   -1.6555   -2.9698 C.ar      1 <0>        -0.0528
     22 C18        -2.2339   -1.1591   -2.6579 C.ar      1 <0>        -0.0664
     23 C19        -1.1623   -2.0228   -2.5646 C.ar      1 <0>        -0.1084
     24 C20        -4.6191   -0.7654   -3.0640 C.1       1 <0>         0.2724
     25 N2         -5.5059   -0.0593   -3.1387 N.1       1 <0>        -0.4458
     26 C21        -0.1072   -4.9480   -5.1635 C.ar      1 <0>         0.1612
     27 C22         0.0034   -3.6197   -5.5599 C.ar      1 <0>        -0.1643
     28 C23         0.0748   -3.2973   -6.9021 C.ar      1 <0>        -0.1163
     29 C24         0.0372   -4.2912   -7.8586 C.ar      1 <0>        -0.1168
     30 C25        -0.0734   -5.6292   -7.4716 C.ar      1 <0>        -0.1105
     31 C26        -0.1402   -5.9550   -6.1155 C.ar      1 <0>        -0.1199
     32 C27        -0.1138   -6.6943   -8.4920 C.2       1 <0>         0.5216
     33 O3         -0.0506   -6.4068   -9.6789 O.co2     1 <0>        -0.6968
     34 O4         -0.2106   -7.8647   -8.1507 O.co2     1 <0>        -0.6805
     35 O5         -0.4345   -7.4942   -0.9788 O.3       1 <0>        -0.6032
     36 H2          0.4105    1.5340    0.0376 H         1 <0>         0.0658
     37 H3         -0.1780    1.3183    1.7035 H         1 <0>         0.0601
     38 H4          1.5544    1.1305    1.3402 H         1 <0>         0.0603
     39 H5         -1.7701   -0.4083    1.0973 H         1 <0>         0.1151
     40 H6         -2.1319   -2.8020    0.6660 H         1 <0>         0.1185
     41 H7          2.3845   -0.8602    0.2360 H         1 <0>         0.1173
     42 H8          2.5224   -3.4520   -1.3817 H         1 <0>         0.0747
     43 H9          3.2775   -3.1537    0.2023 H         1 <0>         0.0609
     44 H10         2.1771   -4.5361   -0.0128 H         1 <0>         0.0735
     45 H11        -2.7241   -4.9335   -3.2681 H         1 <0>         0.1277
     46 H12        -4.6510   -3.4139   -3.4319 H         1 <0>         0.1271
     47 H13        -2.0938   -0.1021   -2.4865 H         1 <0>         0.1253
     48 H14        -0.1823   -1.6408   -2.3194 H         1 <0>         0.1290
     49 H15         0.0334   -2.8371   -4.8163 H         1 <0>         0.1152
     50 H16         0.1599   -2.2637   -7.2033 H         1 <0>         0.1124
     51 H17         0.0928   -4.0349   -8.9063 H         1 <0>         0.1208
     52 H18        -0.2213   -6.9876   -5.8095 H         1 <0>         0.1572
@<TRIPOS>BOND
     1    1    2 1
     2    1   36 1
     3    1   37 1
     4    1   38 1
     5    2    7 ar
     6    2    3 ar
     7    3    4 ar
     8    3   39 1
     9    4    5 ar
    10    4   40 1
    11    5    6 ar
    12    5    9 1
    13    6    7 ar
    14    6    8 1
    15    7   41 1
    16    8   42 1
    17    8   43 1
    18    8   44 1
    19    9   10 2
    20    9   11 1
    21   11   16 1
    22   11   12 2
    23   12   13 1
    24   12   35 1
    25   13   14 2
    26   13   15 am
    27   15   16 1
    28   15   26 1
    29   16   17 1
    30   16   18 1
    31   18   23 ar
    32   18   19 ar
    33   19   20 ar
    34   19   45 1
    35   20   21 ar
    36   20   46 1
    37   21   22 ar
    38   21   24 1
    39   22   23 ar
    40   22   47 1
    41   23   48 1
    42   24   25 3
    43   26   31 ar
    44   26   27 ar
    45   27   28 ar
    46   27   49 1
    47   28   29 ar
    48   28   50 1
    49   29   30 ar
    50   29   51 1
    51   30   31 ar
    52   30   32 1
    53   31   52 1
    54   32   33 2
    55   32   34 1
@<TRIPOS>MOLECULE
ZINC22573068
   41    43     0     0     0
SMALL
USER_CHARGES

@<TRIPOS>ATOM
      1 C1          0.0383    1.4918    0.0191 C.3       1 <0>        -0.1527
      2 C2          0.1737   -0.0094    0.2818 C.3       1 <0>         0.0535
      3 O1         -1.0848   -0.6478    0.0567 O.3       1 <0>        -0.3143
      4 C3         -1.1373   -1.9850    0.2464 C.ar      1 <0>         0.1138
      5 C4          0.0180   -2.6627    0.6509 C.ar      1 <0>        -0.1930
      6 C5          0.0019   -4.0063    0.8510 C.ar      1 <0>        -0.0670
      7 C6         -1.2454   -4.7445    0.6379 C.ar      1 <0>         0.0749
      8 C7         -2.4346   -4.0011    0.2146 C.ar      1 <0>        -0.1190
      9 C8         -2.3468   -2.6568    0.0390 C.ar      1 <0>        -0.1250
     10 N1         -1.2969   -6.0624    0.8244 N.2       1 <0>        -0.4944
     11 C9         -2.3153   -6.6010    1.4925 C.2       1 <0>         0.3281
     12 N2         -2.5153   -7.9221    1.7740 N.am      1 <0>        -0.6512
     13 C10        -3.6044   -8.2524    2.4590 C.2       1 <0>         0.5517
     14 O2         -3.8738   -9.3998    2.7608 O.2       1 <0>        -0.4754
     15 C11        -4.4593   -7.1039    2.8227 C.2       1 <0>        -0.3878
     16 C12        -5.6624   -7.1016    3.5340 C.2       1 <0>         0.1808
     17 C13        -6.2871   -8.3203    3.8657 C.ar      1 <0>        -0.2498
     18 C14        -6.3423   -9.3697    2.9271 C.ar      1 <0>         0.0874
     19 C15        -6.9487  -10.5456    3.2564 C.ar      1 <0>        -0.2105
     20 C16        -7.5166  -10.7213    4.5150 C.ar      1 <0>         0.0594
     21 C17        -7.4764   -9.7084    5.4527 C.ar      1 <0>        -0.1350
     22 C18        -6.8603   -8.5040    5.1479 C.ar      1 <0>         0.3471
     23 O3         -6.8123   -7.5100    6.0661 O.3       1 <0>        -0.5921
     24 N3         -8.0854   -9.9108    6.7864 N.pl3     1 <0>         0.0225
     25 O4         -8.6654  -11.0566    7.0785 O.2       1 <0>        -0.2753
     26 O5         -8.0473   -8.9452    7.6811 O.3       1 <0>        -0.1660
     27 Br1        -7.0193  -11.9500    1.9920 Br        1 <0>        -0.0613
     28 S1         -3.6218   -5.8011    2.1738 S.3       1 <0>         0.1444
     29 H1          0.9983    1.9787    0.1907 H         1 <0>         0.0768
     30 H2         -0.2717    1.6535   -1.0133 H         1 <0>         0.0655
     31 H3         -0.7081    1.9126    0.6928 H         1 <0>         0.0667
     32 H4          0.9201   -0.4303   -0.3919 H         1 <0>         0.0614
     33 H5          0.4837   -0.1711    1.3142 H         1 <0>         0.0626
     34 H6          0.9336   -2.1111    0.8055 H         1 <0>         0.1296
     35 H7          0.8972   -4.5236    1.1629 H         1 <0>         0.1315
     36 H8         -3.3702   -4.5144    0.0486 H         1 <0>         0.1396
     37 H9         -3.2200   -2.1008   -0.2688 H         1 <0>         0.1325
     38 H10        -1.8828   -8.5974    1.4830 H         1 <0>         0.4200
     39 H11        -6.1133   -6.1658    3.8294 H         1 <0>         0.1482
     40 H12        -5.9050   -9.2426    1.9477 H         1 <0>         0.1285
     41 H13        -7.9937  -11.6586    4.7604 H         1 <0>         0.1433
@<TRIPOS>BOND
     1    1    2 1
     2    1   29 1
     3    1   30 1
     4    1   31 1
     5    2    3 1
     6    2   32 1
     7    2   33 1
     8    3    4 1
     9    4    9 ar
    10    4    5 ar
    11    5    6 ar
    12    5   34 1
    13    6    7 ar
    14    6   35 1
    15    7    8 ar
    16    7   10 1
    17    8    9 ar
    18    8   36 1
    19    9   37 1
    20   10   11 2
    21   11   28 1
    22   11   12 1
    23   12   13 am
    24   12   38 1
    25   13   14 2
    26   13   15 1
    27   15   16 2
    28   15   28 1
    29   16   17 1
    30   16   39 1
    31   17   22 ar
    32   17   18 ar
    33   18   19 ar
    34   18   40 1
    35   19   20 ar
    36   19   27 1
    37   20   21 ar
    38   20   41 1
    39   21   22 ar
    40   21   24 1
    41   22   23 1
    42   24   25 2
    43   24   26 1
@<TRIPOS>MOLECULE
ZINC04512503
   48    53     0     0     0
SMALL
USER_CHARGES

@<TRIPOS>ATOM
      1 C1         -2.5956   -0.9183   -0.4966 C.ar      1 <0>        -0.1774
      2 C2         -2.1072   -0.0117   -1.4261 C.ar      1 <0>        -0.1063
      3 C3         -0.8135   -0.1116   -1.8928 C.ar      1 <0>        -0.1611
      4 C4          0.0138   -1.1273   -1.4312 C.ar      1 <0>         0.1554
      5 C5         -0.4795   -2.0450   -0.4901 C.ar      1 <0>        -0.1352
      6 C6         -1.7919   -1.9328   -0.0261 C.ar      1 <0>        -0.0555
      7 C7          0.4067   -3.1163   -0.0091 C.2       1 <0>         0.3084
      8 C8          1.6799   -3.1680   -0.5057 C.2       1 <0>        -0.3491
      9 C9          2.0996   -2.2136   -1.4449 C.2       1 <0>         0.5437
     10 O1          3.2366   -2.2707   -1.8798 O.2       1 <0>        -0.5401
     11 O2          1.2833   -1.2397   -1.8782 O.3       1 <0>        -0.3048
     12 C10         2.6284   -4.2450   -0.0458 C.3       1 <0>         0.1608
     13 C11         3.4463   -4.7273   -1.2160 C.ar      1 <0>         0.0232
     14 C12         4.7843   -4.3914   -1.3075 C.ar      1 <0>        -0.0482
     15 C13         5.5389   -4.8318   -2.3787 C.ar      1 <0>        -0.1062
     16 C14         4.9551   -5.6111   -3.3643 C.ar      1 <0>        -0.0134
     17 C15         3.6073   -5.9494   -3.2723 C.ar      1 <0>         0.0133
     18 C16         2.8586   -5.5092   -2.1928 C.ar      1 <0>        -0.1067
     19 O3          3.2745   -6.7137   -4.3531 O.3       1 <0>        -0.3201
     20 C17         4.3254   -6.4993   -5.3138 C.3       1 <0>         0.2158
     21 O4          5.4668   -6.1636   -4.5028 O.3       1 <0>        -0.3231
     22 C18         3.5454   -3.6884    1.0126 C.2       1 <0>        -0.4410
     23 C19         3.4487   -2.3756    1.3837 C.2       1 <0>         0.3441
     24 C20         4.3672   -1.8817    2.4215 C.ar      1 <0>        -0.1565
     25 C21         4.3236   -0.5528    2.8488 C.ar      1 <0>        -0.0434
     26 C22         5.1970   -0.1221    3.8225 C.ar      1 <0>        -0.1739
     27 C23         6.1162   -1.0008    4.3771 C.ar      1 <0>        -0.0961
     28 C24         6.1697   -2.3154    3.9641 C.ar      1 <0>        -0.1597
     29 C25         5.2974   -2.7703    2.9836 C.ar      1 <0>         0.1506
     30 O5          5.3357   -4.0549    2.5682 O.3       1 <0>        -0.3063
     31 C26         4.4981   -4.5162    1.6257 C.2       1 <0>         0.4983
     32 O6          4.5708   -5.6854    1.2898 O.2       1 <0>        -0.5416
     33 O7          2.5365   -1.5559    0.8135 O.3       1 <0>        -0.6170
     34 O8         -0.0247   -4.0227    0.8973 O.3       1 <0>        -0.6971
     35 H1         -3.6097   -0.8254   -0.1368 H         1 <0>         0.1104
     36 H2         -2.7466    0.7798   -1.7881 H         1 <0>         0.1138
     37 H3         -0.4439    0.5993   -2.6169 H         1 <0>         0.1197
     38 H4         -2.1744   -2.6377    0.6972 H         1 <0>         0.1263
     39 H5          2.0595   -5.0778    0.3677 H         1 <0>         0.0676
     40 H6          5.2409   -3.7834   -0.5405 H         1 <0>         0.1236
     41 H7          6.5839   -4.5680   -2.4476 H         1 <0>         0.1140
     42 H8          1.8143   -5.7738   -2.1165 H         1 <0>         0.1219
     43 H9          4.5148   -7.4090   -5.8837 H         1 <0>         0.1133
     44 H10         4.0729   -5.6744   -5.9799 H         1 <0>         0.0674
     45 H11         3.6093    0.1331    2.4179 H         1 <0>         0.1308
     46 H12         5.1665    0.9047    4.1557 H         1 <0>         0.1148
     47 H13         6.7968   -0.6518    5.1396 H         1 <0>         0.1182
     48 H14         6.8895   -2.9906    4.4025 H         1 <0>         0.1243
@<TRIPOS>BOND
     1    1    6 ar
     2    1    2 ar
     3    1   35 1
     4    2    3 ar
     5    2   36 1
     6    3    4 ar
     7    3   37 1
     8    4   11 1
     9    4    5 ar
    10    5    6 ar
    11    5    7 1
    12    6   38 1
    13    7    8 2
    14    7   34 1
    15    8    9 1
    16    8   12 1
    17    9   10 2
    18    9   11 1
    19   12   13 1
    20   12   22 1
    21   12   39 1
    22   13   18 ar
    23   13   14 ar
    24   14   15 ar
    25   14   40 1
    26   15   16 ar
    27   15   41 1
    28   16   21 1
    29   16   17 ar
    30   17   18 ar
    31   17   19 1
    32   18   42 1
    33   19   20 1
    34   20   21 1
    35   20   43 1
    36   20   44 1
    37   22   31 1
    38   22   23 2
    39   23   24 1
    40   23   33 1
    41   24   29 ar
    42   24   25 ar
    43   25   26 ar
    44   25   45 1
    45   26   27 ar
    46   26   46 1
    47   27   28 ar
    48   27   47 1
    49   28   29 ar
    50   28   48 1
    51   29   30 1
    52   30   31 1
    53   31   32 2
@<TRIPOS>MOLECULE
ZINC02858779
   56    59     0     0     0
SMALL
USER_CHARGES
ethyl 9-(1-benzo[1,3]dioxol-5-ylethylthiocarbamoylamino)-8-thiabicyclo[5.3.0]deca-9,11-diene-10-carboxylate
@<TRIPOS>ATOM
      1 C1          1.7701   -2.4375    6.3889 C.3       1 <0>        -0.1529
      2 C2          1.7552   -3.0570    4.9900 C.3       1 <0>         0.0575
      3 O1          2.3490   -2.1295    4.0436 O.3       1 <0>        -0.3506
      4 C3          2.4133   -2.5260    2.7559 C.2       1 <0>         0.5269
      5 O2          1.9843   -3.6177    2.4335 O.2       1 <0>        -0.4963
      6 C4          2.9992   -1.6425    1.7465 C.2       1 <0>        -0.1789
      7 C5          2.1795   -0.6844    1.0156 C.2       1 <0>        -0.0743
      8 C6          2.8465    0.0611    0.1097 C.2       1 <0>        -0.2382
      9 S1          4.5304   -0.4795    0.2242 S.3       1 <0>         0.3473
     10 C7          4.3543   -1.6877    1.4525 C.2       1 <0>         0.0315
     11 N1          5.3291   -2.5008    2.0067 N.pl3     1 <0>        -0.5703
     12 C8          6.6069   -2.4011    1.5898 C.2       1 <0>         0.5296
     13 S2          7.0251   -1.2693    0.3752 S.2       1 <0>        -0.5090
     14 N2          7.5554   -3.1922    2.1291 N.pl3     1 <0>        -0.6661
     15 C9          8.9443   -3.0838    1.6760 C.3       1 <0>         0.1887
     16 H1          8.9621   -2.8567    0.6100 H         1 <0>         0.1294
     17 C10         9.6467   -1.9647    2.4476 C.3       1 <0>        -0.1619
     18 C11         9.6568   -4.3884    1.9235 C.ar      1 <0>        -0.0915
     19 C12         9.4222   -5.0919    3.0903 C.ar      1 <0>        -0.1073
     20 C13        10.0730   -6.2894    3.3218 C.ar      1 <0>        -0.0940
     21 C14        10.9630   -6.7874    2.3840 C.ar      1 <0>         0.0400
     22 C15        11.1994   -6.0787    1.2087 C.ar      1 <0>         0.0412
     23 C16        10.5392   -4.8821    0.9809 C.ar      1 <0>        -0.0810
     24 O3         12.1050   -6.7700    0.4570 O.3       1 <0>        -0.3043
     25 C17        12.1114   -8.1056    0.9950 C.3       1 <0>         0.2124
     26 O4         11.7205   -7.9227    2.3687 O.3       1 <0>        -0.3062
     27 C18         2.2879    1.1044   -0.8069 C.3       1 <0>        -0.0389
     28 C19         1.4065    2.0674   -0.0003 C.3       1 <0>        -0.1156
     29 C20        -0.0186    1.5231    0.0104 C.3       1 <0>        -0.1207
     30 C21         0.0021   -0.0041    0.0020 C.3       1 <0>        -0.1224
     31 C22         0.6829   -0.5345    1.2589 C.3       1 <0>        -0.0605
     32 H2          1.3243   -3.1337    7.0993 H         1 <0>         0.0816
     33 H3          2.7986   -2.2276    6.6824 H         1 <0>         0.0657
     34 H4          1.1979   -1.5098    6.3815 H         1 <0>         0.0691
     35 H5          0.7267   -3.2668    4.6965 H         1 <0>         0.0725
     36 H6          2.3274   -3.9847    4.9974 H         1 <0>         0.0680
     37 H7          5.0922   -3.1420    2.6949 H         1 <0>         0.4124
     38 H8          7.3184   -3.8334    2.8173 H         1 <0>         0.4033
     39 H9          9.1313   -1.0211    2.2685 H         1 <0>         0.0814
     40 H10         9.6289   -2.1919    3.5135 H         1 <0>         0.0613
     41 H11        10.6801   -1.8841    2.1104 H         1 <0>         0.0822
     42 H12         8.7293   -4.7049    3.8228 H         1 <0>         0.1331
     43 H13         9.8877   -6.8368    4.2341 H         1 <0>         0.1404
     44 H14        10.7172   -4.3327    0.0683 H         1 <0>         0.1443
     45 H15        11.3897   -8.7328    0.4717 H         1 <0>         0.0885
     46 H16        13.1103   -8.5378    0.9353 H         1 <0>         0.1365
     47 H17         3.1051    1.6588   -1.2682 H         1 <0>         0.0731
     48 H18         1.6892    0.6254   -1.5816 H         1 <0>         0.0860
     49 H19         1.4189    3.0527   -0.4661 H         1 <0>         0.0684
     50 H20         1.7797    2.1370    1.0215 H         1 <0>         0.0671
     51 H21        -0.5492    1.8822   -0.8714 H         1 <0>         0.0633
     52 H22        -0.5322    1.8727    0.9060 H         1 <0>         0.0616
     53 H23        -1.0209   -0.3781   -0.0389 H         1 <0>         0.0634
     54 H24         0.5454   -0.3523   -0.8764 H         1 <0>         0.0750
     55 H25         0.5178    0.1618    2.0812 H         1 <0>         0.0757
     56 H26         0.2606   -1.5057    1.5168 H         1 <0>         0.0625
@<TRIPOS>BOND
     1    1    2 1
     2    1   32 1
     3    1   33 1
     4    1   34 1
     5    2    3 1
     6    2   35 1
     7    2   36 1
     8    3    4 1
     9    4    5 2
    10    4    6 1
    11    6   10 2
    12    6    7 1
    13    7   31 1
    14    7    8 2
    15    8    9 1
    16    8   27 1
    17    9   10 1
    18   10   11 1
    19   11   12 1
    20   11   37 1
    21   12   13 2
    22   12   14 1
    23   14   15 1
    24   14   38 1
    25   15   16 1
    26   15   17 1
    27   15   18 1
    28   17   39 1
    29   17   40 1
    30   17   41 1
    31   18   23 ar
    32   18   19 ar
    33   19   20 ar
    34   19   42 1
    35   20   21 ar
    36   20   43 1
    37   21   26 1
    38   21   22 ar
    39   22   23 ar
    40   22   24 1
    41   23   44 1
    42   24   25 1
    43   25   26 1
    44   25   45 1
    45   25   46 1
    46   27   28 1
    47   27   47 1
    48   27   48 1
    49   28   29 1
    50   28   49 1
    51   28   50 1
    52   29   30 1
    53   29   51 1
    54   29   52 1
    55   30   31 1
    56   30   53 1
    57   30   54 1
    58   31   55 1
    59   31   56 1
@<TRIPOS>MOLECULE
ZINC13525447
   68    70     0     0     0
SMALL
USER_CHARGES
[2-(isobutylcarbamoylamino)-2-oxo-ethyl] (2R)-2-(1,1-dimethylpropyl)-1,2,3,4-tetrahydroacridine-9-carboxylate
@<TRIPOS>ATOM
      1 C1         -7.5121    0.6498    7.4981 C.3       1 <0>        -0.1576
      2 C2         -8.2507    0.3851    6.1846 C.3       1 <0>        -0.1148
      3 C3         -7.2952    0.6018    5.0095 C.3       1 <0>        -0.0574
      4 C4         -6.1109   -0.3593    5.1313 C.3       1 <0>        -0.1512
      5 C5         -6.7852    2.0442    5.0261 C.3       1 <0>        -0.1474
      6 C6         -8.0338    0.3371    3.6960 C.3       1 <0>        -0.0752
      7 H1         -8.8840    1.0137    3.6101 H         1 <0>         0.0795
      8 C7         -8.5233   -1.1154    3.6624 C.3       1 <0>        -0.1210
      9 C8         -9.4675   -1.2745    2.4690 C.3       1 <0>        -0.0697
     10 C9         -8.8128   -0.7697    1.2067 C.ar      1 <0>         0.1704
     11 C10        -7.7178    0.0841    1.2361 C.ar      1 <0>        -0.0673
     12 C11        -7.1659    0.5385    0.0390 C.ar      1 <0>        -0.0588
     13 C12        -7.7416    0.0950   -1.1763 C.ar      1 <0>        -0.0672
     14 C13        -7.2426    0.5057   -2.4187 C.ar      1 <0>        -0.1064
     15 C14        -7.8279    0.0528   -3.5629 C.ar      1 <0>        -0.0982
     16 C15        -8.9168   -0.8152   -3.5125 C.ar      1 <0>        -0.1002
     17 C16        -9.4265   -1.2337   -2.3225 C.ar      1 <0>        -0.0840
     18 C17        -8.8499   -0.7858   -1.1194 C.ar      1 <0>         0.1361
     19 N1         -9.3281   -1.1733    0.0614 N.ar      1 <0>        -0.4592
     20 C18        -6.0062    1.4546    0.0384 C.2       1 <0>         0.5260
     21 O1         -6.1817    2.6565    0.0458 O.2       1 <0>        -0.4807
     22 O2         -4.7545    0.9567    0.0298 O.3       1 <0>        -0.3202
     23 C19        -3.6637    1.9151    0.0298 C.3       1 <0>         0.0473
     24 C20        -2.3486    1.1795    0.0196 C.2       1 <0>         0.5183
     25 O3         -2.3321   -0.0328    0.0129 O.2       1 <0>        -0.4356
     26 N2         -1.1906    1.8691    0.0179 N.am      1 <0>        -0.6882
     27 C21        -0.0144    1.2112    0.0087 C.2       1 <0>         0.6948
     28 O4          0.0021   -0.0041    0.0020 O.2       1 <0>        -0.5245
     29 N3          1.1435    1.9009    0.0013 N.am      1 <0>        -0.7344
     30 C22         2.4220    1.1857   -0.0147 C.3       1 <0>         0.1371
     31 C23         3.5713    2.1957   -0.0202 C.3       1 <0>        -0.1079
     32 C24         4.9040    1.4523    0.0888 C.3       1 <0>        -0.1470
     33 C25         3.5395    2.9973   -1.3231 C.3       1 <0>        -0.1506
     34 C26        -7.0841    0.5520    2.5192 C.3       1 <0>        -0.0910
     35 H2         -6.6684   -0.0349    7.5848 H         1 <0>         0.0572
     36 H3         -7.1487    1.6774    7.5099 H         1 <0>         0.0561
     37 H4         -8.1928    0.4954    8.3353 H         1 <0>         0.0522
     38 H5         -9.0944    1.0698    6.0979 H         1 <0>         0.0622
     39 H6         -8.6140   -0.6425    6.1728 H         1 <0>         0.0670
     40 H7         -5.4302   -0.2050    4.2941 H         1 <0>         0.0555
     41 H8         -5.5847   -0.1707    6.0670 H         1 <0>         0.0596
     42 H9         -6.4742   -1.3869    5.1194 H         1 <0>         0.0602
     43 H10        -7.6289    2.7288    4.9394 H         1 <0>         0.0557
     44 H11        -6.2590    2.2327    5.9618 H         1 <0>         0.0604
     45 H12        -6.1045    2.1985    4.1889 H         1 <0>         0.0527
     46 H13        -7.6711   -1.7866    3.5558 H         1 <0>         0.0739
     47 H14        -9.0592   -1.3427    4.5839 H         1 <0>         0.0844
     48 H15       -10.3854   -0.7141    2.6467 H         1 <0>         0.0917
     49 H16        -9.7092   -2.3307    2.3509 H         1 <0>         0.0921
     50 H17        -6.3988    1.1779   -2.4697 H         1 <0>         0.1232
     51 H18        -7.4428    0.3703   -4.5207 H         1 <0>         0.1332
     52 H19        -9.3632   -1.1616   -4.4329 H         1 <0>         0.1362
     53 H20       -10.2706   -1.9072   -2.3012 H         1 <0>         0.1419
     54 H21        -3.7258    2.5361    0.9235 H         1 <0>         0.1131
     55 H22        -3.7342    2.5458   -0.8564 H         1 <0>         0.1127
     56 H23        -1.2038    2.8390    0.0232 H         1 <0>         0.4118
     57 H24         1.1303    2.8708    0.0067 H         1 <0>         0.3991
     58 H25         2.4967    0.5551    0.8712 H         1 <0>         0.0719
     59 H26         2.4797    0.5647   -0.9086 H         1 <0>         0.0722
     60 H27         3.4632    2.8738    0.8263 H         1 <0>         0.0782
     61 H28         5.0121    0.7742   -0.7578 H         1 <0>         0.0600
     62 H29         5.7228    2.1718    0.0848 H         1 <0>         0.0627
     63 H30         4.9267    0.8812    1.0169 H         1 <0>         0.0598
     64 H31         3.6476    2.3192   -2.1696 H         1 <0>         0.0592
     65 H32         2.5900    3.5269   -1.4007 H         1 <0>         0.0530
     66 H33         4.3583    3.7168   -1.3270 H         1 <0>         0.0603
     67 H34        -6.1653   -0.0085    2.6917 H         1 <0>         0.0954
     68 H35        -6.8474    1.6128    2.4373 H         1 <0>         0.0813
@<TRIPOS>BOND
     1    1    2 1
     2    1   35 1
     3    1   36 1
     4    1   37 1
     5    2    3 1
     6    2   38 1
     7    2   39 1
     8    3    4 1
     9    3    5 1
    10    3    6 1
    11    4   40 1
    12    4   41 1
    13    4   42 1
    14    5   43 1
    15    5   44 1
    16    5   45 1
    17    6    7 1
    18    6   34 1
    19    6    8 1
    20    8    9 1
    21    8   46 1
    22    8   47 1
    23    9   10 1
    24    9   48 1
    25    9   49 1
    26   10   19 ar
    27   10   11 ar
    28   11   12 ar
    29   11   34 1
    30   12   13 ar
    31   12   20 1
    32   13   18 ar
    33   13   14 ar
    34   14   15 ar
    35   14   50 1
    36   15   16 ar
    37   15   51 1
    38   16   17 ar
    39   16   52 1
    40   17   18 ar
    41   17   53 1
    42   18   19 ar
    43   20   21 2
    44   20   22 1
    45   22   23 1
    46   23   24 1
    47   23   54 1
    48   23   55 1
    49   24   25 2
    50   24   26 am
    51   26   27 am
    52   26   56 1
    53   27   28 2
    54   27   29 am
    55   29   30 1
    56   29   57 1
    57   30   31 1
    58   30   58 1
    59   30   59 1
    60   31   32 1
    61   31   33 1
    62   31   60 1
    63   32   61 1
    64   32   62 1
    65   32   63 1
    66   33   64 1
    67   33   65 1
    68   33   66 1
    69   34   67 1
    70   34   68 1
@<TRIPOS>MOLECULE
ZINC29331322
   66    68     0     0     0
SMALL
USER_CHARGES
1-[(1S)-1-(3,4-dipropoxyphenyl)ethyl]-3-[(S)-phenyl(2-pyridyl)methyl]urea
@<TRIPOS>ATOM
      1 C1          2.2509    4.0898    0.6029 C.3       1 <0>        -0.1518
      2 C2          0.9266    3.3283    0.6878 C.3       1 <0>        -0.1245
      3 C3          1.1941    1.8260    0.5760 C.3       1 <0>         0.0559
      4 O1         -0.0428    1.1148    0.6553 O.3       1 <0>        -0.3037
      5 C4          0.0183   -0.2412    0.5719 C.ar      1 <0>         0.1039
      6 C5          1.2412   -0.8726    0.4114 C.ar      1 <0>        -0.1689
      7 C6          1.3022   -2.2515    0.3330 C.ar      1 <0>        -0.1107
      8 C7          0.1436   -3.0027    0.4020 C.ar      1 <0>        -0.0858
      9 C8         -1.0803   -2.3788    0.5563 C.ar      1 <0>        -0.1613
     10 C9         -1.1478   -0.9974    0.6418 C.ar      1 <0>         0.1090
     11 O2         -2.3510   -0.3820    0.7932 O.3       1 <0>        -0.3030
     12 C10        -3.5056   -1.2216    0.8572 C.3       1 <0>         0.0545
     13 C11        -4.7563   -0.3568    1.0273 C.3       1 <0>        -0.1235
     14 C12        -5.9924   -1.2557    1.0959 C.3       1 <0>        -0.1523
     15 C13         0.2152   -4.5052    0.3092 C.3       1 <0>         0.2107
     16 H1         -0.7577   -4.9056   -0.0121 H         1 <0>         0.0943
     17 C14         0.6253   -5.0810    1.6661 C.3       1 <0>        -0.1579
     18 N1          1.2047   -4.8854   -0.7019 N.am      1 <0>        -0.7514
     19 C15         1.1089   -6.0773   -1.3238 C.2       1 <0>         0.7124
     20 O3          0.2011   -6.8369   -1.0457 O.2       1 <0>        -0.5909
     21 N2          2.0193   -6.4271   -2.2540 N.am      1 <0>        -0.7454
     22 C16         1.9151   -7.7226   -2.9301 C.3       1 <0>         0.2650
     23 H2          1.5026   -8.4472   -2.2126 H         1 <0>         0.1091
     24 C17         1.0038   -7.5947   -4.1235 C.ar      1 <0>        -0.0919
     25 C18         1.0585   -6.4640   -4.9168 C.ar      1 <0>        -0.0783
     26 C19         0.2256   -6.3485   -6.0140 C.ar      1 <0>        -0.1275
     27 C20        -0.6687   -7.3596   -6.3123 C.ar      1 <0>        -0.1175
     28 C21        -0.7267   -8.4881   -5.5162 C.ar      1 <0>        -0.1241
     29 C22         0.1092   -8.6055   -4.4215 C.ar      1 <0>        -0.1038
     30 C23         3.2823   -8.1622   -3.3869 C.ar      1 <0>         0.1213
     31 C24         3.8365   -9.3180   -2.8696 C.ar      1 <0>        -0.1541
     32 C25         5.0922   -9.7168   -3.3010 C.ar      1 <0>        -0.0726
     33 C26         5.7513   -8.9285   -4.2322 C.ar      1 <0>        -0.1679
     34 C27         5.1366   -7.7828   -4.7000 C.ar      1 <0>         0.1016
     35 N3          3.9382   -7.4370   -4.2714 N.ar      1 <0>        -0.4677
     36 H3          2.0586    5.1699    0.6833 H         1 <0>         0.0659
     37 H4          2.7365    3.8745   -0.3603 H         1 <0>         0.0580
     38 H5          2.9096    3.7725    1.4247 H         1 <0>         0.0580
     39 H6          0.4410    3.5436    1.6510 H         1 <0>         0.0746
     40 H7          0.2678    3.6456   -0.1340 H         1 <0>         0.0745
     41 H8          1.6798    1.6107   -0.3872 H         1 <0>         0.0620
     42 H9          1.8529    1.5087    1.3978 H         1 <0>         0.0621
     43 H10         2.1472   -0.2878    0.3520 H         1 <0>         0.1358
     44 H11         2.2565   -2.7427    0.2128 H         1 <0>         0.1254
     45 H12        -1.9838   -2.9679    0.6099 H         1 <0>         0.1363
     46 H13        -3.5867   -1.8049   -0.0719 H         1 <0>         0.0628
     47 H14        -3.4141   -1.9063    1.7132 H         1 <0>         0.0630
     48 H15        -4.6751    0.2266    1.9563 H         1 <0>         0.0744
     49 H16        -4.8479    0.3279    0.1713 H         1 <0>         0.0743
     50 H17        -6.8916   -0.6340    1.2182 H         1 <0>         0.0659
     51 H18        -5.9008   -1.9404    1.9520 H         1 <0>         0.0584
     52 H19        -6.0735   -1.8391    0.1669 H         1 <0>         0.0584
     53 H20         0.6776   -6.1777    1.5984 H         1 <0>         0.0658
     54 H21        -0.1178   -4.7955    2.4253 H         1 <0>         0.0663
     55 H22         1.6110   -4.6838    1.9502 H         1 <0>         0.0589
     56 H23         2.0259   -4.1981   -0.9536 H         1 <0>         0.4107
     57 H24         2.8406   -5.7399   -2.5056 H         1 <0>         0.4177
     58 H25         1.7543   -5.6723   -4.6814 H         1 <0>         0.1213
     59 H26         0.2712   -5.4670   -6.6362 H         1 <0>         0.1193
     60 H27        -1.3218   -7.2679   -7.1676 H         1 <0>         0.1194
     61 H28        -1.4254   -9.2780   -5.7492 H         1 <0>         0.1211
     62 H29         0.0636   -9.4871   -3.7993 H         1 <0>         0.1198
     63 H30         3.2963   -9.9053   -2.1418 H         1 <0>         0.1366
     64 H31         5.5483  -10.6175   -2.9174 H         1 <0>         0.1373
     65 H32         6.7325   -9.2067   -4.5875 H         1 <0>         0.1367
     66 H33         5.6432   -7.1634   -5.4254 H         1 <0>         0.1581
@<TRIPOS>BOND
     1    1    2 1
     2    1   36 1
     3    1   37 1
     4    1   38 1
     5    2    3 1
     6    2   39 1
     7    2   40 1
     8    3    4 1
     9    3   41 1
    10    3   42 1
    11    4    5 1
    12    5   10 ar
    13    5    6 ar
    14    6    7 ar
    15    6   43 1
    16    7    8 ar
    17    7   44 1
    18    8    9 ar
    19    8   15 1
    20    9   10 ar
    21    9   45 1
    22   10   11 1
    23   11   12 1
    24   12   13 1
    25   12   46 1
    26   12   47 1
    27   13   14 1
    28   13   48 1
    29   13   49 1
    30   14   50 1
    31   14   51 1
    32   14   52 1
    33   15   16 1
    34   15   17 1
    35   15   18 1
    36   17   53 1
    37   17   54 1
    38   17   55 1
    39   18   19 am
    40   18   56 1
    41   19   20 2
    42   19   21 am
    43   21   22 1
    44   21   57 1
    45   22   23 1
    46   22   24 1
    47   22   30 1
    48   24   29 ar
    49   24   25 ar
    50   25   26 ar
    51   25   58 1
    52   26   27 ar
    53   26   59 1
    54   27   28 ar
    55   27   60 1
    56   28   29 ar
    57   28   61 1
    58   29   62 1
    59   30   35 ar
    60   30   31 ar
    61   31   32 ar
    62   31   63 1
    63   32   33 ar
    64   32   64 1
    65   33   34 ar
    66   33   65 1
    67   34   35 ar
    68   34   66 1
@<TRIPOS>MOLECULE
ZINC36806218
   48    50     0     0     0
SMALL
USER_CHARGES

@<TRIPOS>ATOM
      1 C1          1.1205   -0.5396   -0.6326 C.ar      1 <0>        -0.1158
      2 C2          2.3059    0.1676   -0.6513 C.ar      1 <0>        -0.0582
      3 C3          2.3796    1.4160   -0.0461 C.ar      1 <0>        -0.1115
      4 C4          1.2602    1.9524    0.5780 C.ar      1 <0>        -0.0925
      5 C5          0.0749    1.2449    0.5966 C.ar      1 <0>        -0.1266
      6 C6          0.0015   -0.0032   -0.0085 C.ar      1 <0>         0.1649
      7 N1         -1.2008   -0.7205    0.0101 N.pl3     1 <0>        -0.6042
      8 C7         -1.1854   -2.1059   -0.1024 C.2       1 <0>         0.3323
      9 N2         -0.1567   -2.9307   -0.1300 N.2       1 <0>        -0.3521
     10 N3         -0.3679   -4.2850   -0.2480 N.2       1 <0>        -0.2794
     11 C8         -1.5989   -4.7522   -0.3330 C.2       1 <0>         0.0282
     12 S1         -2.5540   -3.2455   -0.2405 S.3       1 <0>         0.0281
     13 S2         -2.1528   -6.4175   -0.4902 S.3       1 <0>         0.1342
     14 C9         -0.6212   -7.3893   -0.5106 C.3       1 <0>        -0.1612
     15 C10        -0.9565   -8.8526   -0.6428 C.2       1 <0>         0.5386
     16 O1         -2.1147   -9.2051   -0.7162 O.2       1 <0>        -0.5058
     17 N4          0.0306   -9.7695   -0.6797 N.am      1 <0>        -0.7151
     18 C11        -0.2953  -11.1920   -0.8083 C.3       1 <0>         0.2840
     19 C12        -1.0636  -11.4234   -2.1110 C.3       1 <0>        -0.1288
     20 C13        -1.4039  -12.9090   -2.2453 C.3       1 <0>        -0.1224
     21 C14        -0.1122  -13.7287   -2.2625 C.3       1 <0>        -0.1240
     22 C15         0.6561  -13.4972   -0.9598 C.3       1 <0>        -0.1214
     23 C16         0.9965  -12.0116   -0.8254 C.3       1 <0>        -0.1195
     24 C17        -1.1265  -11.6100    0.3324 C.1       1 <0>         0.2020
     25 N5         -1.7680  -11.9325    1.2127 N.1       1 <0>        -0.4049
     26 S3          3.8927    2.3187   -0.0695 S.3       1 <0>        -0.0918
     27 C18         3.5045    3.8491    0.8236 C.3       1 <0>         0.2712
     28 F1          2.4758    4.5275    0.1612 F         1 <0>        -0.1804
     29 F2          3.0959    3.5387    2.1252 F         1 <0>        -0.1803
     30 H1          1.0620   -1.5081   -1.1069 H         1 <0>         0.1515
     31 H2          3.1761   -0.2496   -1.1362 H         1 <0>         0.1373
     32 H3          1.3174    2.9227    1.0488 H         1 <0>         0.1328
     33 H4         -0.7952    1.6617    1.0820 H         1 <0>         0.1361
     34 H5         -2.0445   -0.2506    0.1015 H         1 <0>         0.4328
     35 H6         -0.0057   -7.0798   -1.3552 H         1 <0>         0.1341
     36 H7         -0.0740   -7.2244    0.4175 H         1 <0>         0.1312
     37 H8          0.9569   -9.4875   -0.6210 H         1 <0>         0.4149
     38 H9         -1.9838  -10.8394   -2.0988 H         1 <0>         0.0945
     39 H10        -0.4480  -11.1139   -2.9557 H         1 <0>         0.0876
     40 H11        -2.0195  -13.2185   -1.4007 H         1 <0>         0.0627
     41 H12        -1.9512  -13.0739   -3.1734 H         1 <0>         0.0766
     42 H13        -0.3547  -14.7870   -2.3582 H         1 <0>         0.0696
     43 H14         0.5033  -13.4191   -3.1072 H         1 <0>         0.0705
     44 H15         0.0406  -13.8068   -0.1151 H         1 <0>         0.0645
     45 H16         1.5764  -14.0812   -0.9720 H         1 <0>         0.0795
     46 H17         1.6120  -11.7021   -1.6701 H         1 <0>         0.0955
     47 H18         1.5438  -11.8468    0.1027 H         1 <0>         0.0812
     48 H19         4.3911    4.4820    0.8623 H         1 <0>         0.1596
@<TRIPOS>BOND
     1    1    6 ar
     2    1    2 ar
     3    1   30 1
     4    2    3 ar
     5    2   31 1
     6    3    4 ar
     7    3   26 1
     8    4    5 ar
     9    4   32 1
    10    5    6 ar
    11    5   33 1
    12    6    7 1
    13    7    8 1
    14    7   34 1
    15    8   12 1
    16    8    9 2
    17    9   10 1
    18   10   11 2
    19   11   12 1
    20   11   13 1
    21   13   14 1
    22   14   15 1
    23   14   35 1
    24   14   36 1
    25   15   16 2
    26   15   17 am
    27   17   18 1
    28   17   37 1
    29   18   23 1
    30   18   19 1
    31   18   24 1
    32   19   20 1
    33   19   38 1
    34   19   39 1
    35   20   21 1
    36   20   40 1
    37   20   41 1
    38   21   22 1
    39   21   42 1
    40   21   43 1
    41   22   23 1
    42   22   44 1
    43   22   45 1
    44   23   46 1
    45   23   47 1
    46   24   25 3
    47   26   27 1
    48   27   28 1
    49   27   29 1
    50   27   48 1
@<TRIPOS>MOLECULE
ZINC59265632
   63    65     0     0     0
SMALL
USER_CHARGES

@<TRIPOS>ATOM
      1 C1         -0.0365    1.5008    0.0556 C.3       1 <0>        -0.1085
      2 C2         -0.0140   -0.0060    0.0430 C.ar      1 <0>        -0.1414
      3 C3         -0.0176   -0.6859   -1.1612 C.ar      1 <0>        -0.0718
      4 C4          0.0030   -2.0668   -1.1763 C.ar      1 <0>        -0.1863
      5 C5          0.0273   -2.7726    0.0198 C.ar      1 <0>         0.2100
      6 C6          0.0308   -2.0864    1.2276 C.ar      1 <0>        -0.1925
      7 C7          0.0158   -0.7055    1.2355 C.ar      1 <0>        -0.0717
      8 N1          0.0477   -4.1692    0.0082 N.pl3     1 <0>        -0.7468
      9 C8          0.0733   -4.9119    1.2706 C.3       1 <0>         0.2199
     10 C9          0.0916   -6.3911    0.9829 C.2       1 <0>         0.1659
     11 N2         -0.9484   -7.1633    0.8421 N.2       1 <0>        -0.2593
     12 N3         -0.5735   -8.3693    0.6035 N.2       1 <0>        -0.2947
     13 C10         0.7376   -8.4321    0.5790 C.2       1 <0>         0.1515
     14 N4          1.2029   -7.1704    0.8154 N.pl3     1 <0>        -0.4459
     15 C11         2.6021   -6.7411    0.8793 C.3       1 <0>         0.1311
     16 C12         3.1016   -6.8657    2.2957 C.2       1 <0>        -0.1964
     17 C13         4.1766   -7.5691    2.5516 C.2       1 <0>        -0.1395
     18 S1          1.7124   -9.8710    0.2894 S.3       1 <0>         0.0845
     19 C14         0.4890  -11.1876    0.0434 C.3       1 <0>        -0.1478
     20 C15         1.1992  -12.4909   -0.2173 C.2       1 <0>         0.5369
     21 O1          2.4113  -12.5280   -0.2354 O.2       1 <0>        -0.5029
     22 N5          0.4873  -13.6154   -0.4304 N.am      1 <0>        -0.6645
     23 C16         1.1425  -14.8048   -0.7680 C.ar      1 <0>         0.1329
     24 C17         0.5520  -15.6977   -1.6525 C.ar      1 <0>        -0.1372
     25 C18         1.2012  -16.8708   -1.9836 C.ar      1 <0>        -0.0976
     26 C19         2.4381  -17.1568   -1.4354 C.ar      1 <0>        -0.0788
     27 C20         3.0287  -16.2699   -0.5539 C.ar      1 <0>        -0.1034
     28 C21         2.3873  -15.0922   -0.2235 C.ar      1 <0>        -0.1149
     29 C22         3.1437  -18.4378   -1.7989 C.3       1 <0>        -0.0296
     30 C23         3.3903  -18.4736   -3.3084 C.3       1 <0>        -0.1396
     31 C24         4.4825  -18.5095   -1.0616 C.3       1 <0>        -0.1462
     32 C25         2.2748  -19.6308   -1.3956 C.3       1 <0>        -0.1392
     33 H1          0.9855    1.8795    0.0420 H         1 <0>         0.0646
     34 H2         -0.5701    1.8635   -0.8229 H         1 <0>         0.0623
     35 H3         -0.5411    1.8491    0.9568 H         1 <0>         0.0625
     36 H4         -0.0368   -0.1365   -2.0908 H         1 <0>         0.1213
     37 H5         -0.0002   -2.5972   -2.1171 H         1 <0>         0.1191
     38 H6          0.0493   -2.6322    2.1594 H         1 <0>         0.1200
     39 H7          0.0230   -0.1713    2.1741 H         1 <0>         0.1212
     40 H8          0.0449   -4.6472   -0.8359 H         1 <0>         0.4017
     41 H9          0.9660   -4.6403    1.8340 H         1 <0>         0.0805
     42 H10        -0.8137   -4.6664    1.8547 H         1 <0>         0.0979
     43 H11         3.2054   -7.3700    0.2247 H         1 <0>         0.1054
     44 H12         2.6787   -5.7026    0.5571 H         1 <0>         0.1109
     45 H13         2.5732   -6.3750    3.0997 H         1 <0>         0.1187
     46 H14         4.7050   -8.0598    1.7476 H         1 <0>         0.1054
     47 H15         4.5345   -7.6584    3.5667 H         1 <0>         0.1111
     48 H16        -0.1276  -11.2823    0.9373 H         1 <0>         0.1308
     49 H17        -0.1433  -10.9413   -0.8097 H         1 <0>         0.1306
     50 H18        -0.4792  -13.6001   -0.3498 H         1 <0>         0.4150
     51 H19        -0.4142  -15.4751   -2.0808 H         1 <0>         0.1260
     52 H20         0.7423  -17.5658   -2.6712 H         1 <0>         0.1260
     53 H21         3.9946  -16.4963   -0.1271 H         1 <0>         0.1308
     54 H22         2.8514  -14.3976    0.4610 H         1 <0>         0.1386
     55 H23         4.0093  -17.6236   -3.5958 H         1 <0>         0.0567
     56 H24         3.9007  -19.4001   -3.5714 H         1 <0>         0.0593
     57 H25         2.4365  -18.4225   -3.8337 H         1 <0>         0.0568
     58 H26         4.3068  -18.4840    0.0138 H         1 <0>         0.0591
     59 H27         4.9928  -19.4361   -1.3245 H         1 <0>         0.0593
     60 H28         5.1015  -17.6596   -1.3489 H         1 <0>         0.0593
     61 H29         1.3211  -19.5797   -1.9208 H         1 <0>         0.0568
     62 H30         2.7852  -20.5573   -1.6585 H         1 <0>         0.0592
     63 H31         2.0992  -19.6053   -0.3201 H         1 <0>         0.0566
@<TRIPOS>BOND
     1    1    2 1
     2    1   33 1
     3    1   34 1
     4    1   35 1
     5    2    7 ar
     6    2    3 ar
     7    3    4 ar
     8    3   36 1
     9    4    5 ar
    10    4   37 1
    11    5    6 ar
    12    5    8 1
    13    6    7 ar
    14    6   38 1
    15    7   39 1
    16    8    9 1
    17    8   40 1
    18    9   10 1
    19    9   41 1
    20    9   42 1
    21   10   14 1
    22   10   11 2
    23   11   12 1
    24   12   13 2
    25   13   14 1
    26   13   18 1
    27   14   15 1
    28   15   16 1
    29   15   43 1
    30   15   44 1
    31   16   17 2
    32   16   45 1
    33   17   46 1
    34   17   47 1
    35   18   19 1
    36   19   20 1
    37   19   48 1
    38   19   49 1
    39   20   21 2
    40   20   22 am
    41   22   23 1
    42   22   50 1
    43   23   28 ar
    44   23   24 ar
    45   24   25 ar
    46   24   51 1
    47   25   26 ar
    48   25   52 1
    49   26   27 ar
    50   26   29 1
    51   27   28 ar
    52   27   53 1
    53   28   54 1
    54   29   30 1
    55   29   31 1
    56   29   32 1
    57   30   55 1
    58   30   56 1
    59   30   57 1
    60   31   58 1
    61   31   59 1
    62   31   60 1
    63   32   61 1
    64   32   62 1
    65   32   63 1
@<TRIPOS>MOLECULE
ZINC05122180
   57    59     0     0     0
SMALL
USER_CHARGES
4-cyano-N-(2-diethylaminoethyl)-N-(4-methoxy-7-methyl-benzothiazol-2-yl)-benzamide
@<TRIPOS>ATOM
      1 C1          9.4463   -0.8147   -1.7439 C.3       1 <0>        -0.1895
      2 C2          8.0612   -0.8647   -1.0957 C.3       1 <0>        -0.0113
      3 C3          8.8521   -2.1014    0.8298 C.3       1 <0>        -0.0136
      4 C4          9.0630   -3.5370    1.3152 C.3       1 <0>        -0.1951
      5 C5          6.5438   -2.3018    0.1268 C.3       1 <0>        -0.0398
      6 C6          5.6855   -2.7271   -1.0663 C.3       1 <0>         0.0519
      7 N1          4.3336   -3.0513   -0.6044 N.am      1 <0>        -0.4922
      8 C7          3.4198   -2.0371   -0.3708 C.2       1 <0>         0.3101
      9 N2          3.5762   -0.7411   -0.5049 N.2       1 <0>        -0.5126
     10 C8          2.5876    0.1409   -0.2389 C.ar      1 <0>         0.0643
     11 C9          2.6248    1.5550   -0.3412 C.ar      1 <0>         0.1816
     12 C10         1.5189    2.3094   -0.0278 C.ar      1 <0>        -0.2014
     13 C11         0.3368    1.7195    0.3958 C.ar      1 <0>        -0.0472
     14 C12         0.2675    0.3432    0.5060 C.ar      1 <0>        -0.0636
     15 C13         1.3669   -0.4203    0.1955 C.ar      1 <0>        -0.1364
     16 S1          1.7271   -2.1602    0.1895 S.3       1 <0>         0.1325
     17 C14        -1.0074   -0.3164    0.9648 C.3       1 <0>        -0.1171
     18 O1          3.7649    2.1703   -0.7527 O.3       1 <0>        -0.3056
     19 C15         3.7388    3.5967   -0.8352 C.3       1 <0>         0.0202
     20 C16         3.9790   -4.3365   -0.4067 C.2       1 <0>         0.5598
     21 O2          2.9010   -4.6002    0.0889 O.2       1 <0>        -0.4570
     22 C17         4.9015   -5.4256   -0.7928 C.ar      1 <0>        -0.1016
     23 C18         6.2817   -5.2146   -0.7640 C.ar      1 <0>        -0.1327
     24 C19         7.1411   -6.2305   -1.1190 C.ar      1 <0>        -0.0765
     25 C20         6.6320   -7.4686   -1.5176 C.ar      1 <0>         0.0230
     26 C21         5.2514   -7.6778   -1.5514 C.ar      1 <0>        -0.0598
     27 C22         4.3923   -6.6633   -1.1918 C.ar      1 <0>        -0.0445
     28 C23         7.5255   -8.5236   -1.8911 C.1       1 <0>         0.2284
     29 N3          8.2342   -9.3605   -2.1873 N.1       1 <0>        -0.3724
     30 H1          9.5432    0.1032   -2.3237 H         1 <0>         0.1088
     31 H2         10.2115   -0.8368   -0.9680 H         1 <0>         0.0813
     32 H3          9.5708   -1.6749   -2.4017 H         1 <0>         0.0813
     33 H4          7.2960   -0.8426   -1.8716 H         1 <0>         0.1321
     34 H5          7.9367   -0.0045   -0.4379 H         1 <0>         0.1362
     35 H6          9.8087   -1.6765    0.5258 H         1 <0>         0.1378
     36 H7          8.4290   -1.5034    1.6369 H         1 <0>         0.1341
     37 H8          9.6801   -3.5298    2.2136 H         1 <0>         0.1111
     38 H9          8.0975   -3.9896    1.5412 H         1 <0>         0.0785
     39 H10         9.5615   -4.1143    0.5365 H         1 <0>         0.0838
     40 H11         6.1559   -1.3707    0.5398 H         1 <0>         0.1518
     41 H12         6.5140   -3.0785    0.8910 H         1 <0>         0.1383
     42 H13         6.1284   -3.6043   -1.5381 H         1 <0>         0.1431
     43 H14         5.6371   -1.9118   -1.7880 H         1 <0>         0.1216
     44 H15         1.5715    3.3847   -0.1137 H         1 <0>         0.1439
     45 H16        -0.5224    2.3293    0.6329 H         1 <0>         0.1465
     46 H17        -1.6336   -0.5374    0.1004 H         1 <0>         0.0791
     47 H18        -0.7694   -1.2429    1.4874 H         1 <0>         0.0670
     48 H19        -1.5413    0.3539    1.6384 H         1 <0>         0.0789
     49 H20         2.9679    3.9058   -1.5411 H         1 <0>         0.0618
     50 H21         3.5194    4.0135    0.1478 H         1 <0>         0.0609
     51 H22         4.7090    3.9589   -1.1751 H         1 <0>         0.1043
     52 H23         6.6752   -4.2561   -0.4594 H         1 <0>         0.1317
     53 H24         8.2086   -6.0686   -1.0927 H         1 <0>         0.1462
     54 H25         4.8576   -8.6350   -1.8599 H         1 <0>         0.1547
     55 H26         3.3248   -6.8250   -1.2179 H         1 <0>         0.1570
     56 N4          7.9377   -2.1237   -0.3313 N.4       1 <0>        -0.3953
     57 H27         8.1915   -2.9101   -0.9407 H         1 <0>         0.4218
@<TRIPOS>BOND
     1    1    2 1
     2    1   30 1
     3    1   31 1
     4    1   32 1
     5    2   33 1
     6    2   34 1
     7    2   56 1
     8    3    4 1
     9    3   35 1
    10    3   36 1
    11    3   56 1
    12    4   37 1
    13    4   38 1
    14    4   39 1
    15    5    6 1
    16    5   40 1
    17    5   41 1
    18    5   56 1
    19    6    7 1
    20    6   42 1
    21    6   43 1
    22    7    8 1
    23    7   20 am
    24    8   16 1
    25    8    9 2
    26    9   10 1
    27   10   15 ar
    28   10   11 ar
    29   11   12 ar
    30   11   18 1
    31   12   13 ar
    32   12   44 1
    33   13   14 ar
    34   13   45 1
    35   14   15 ar
    36   14   17 1
    37   15   16 1
    38   17   46 1
    39   17   47 1
    40   17   48 1
    41   18   19 1
    42   19   49 1
    43   19   50 1
    44   19   51 1
    45   20   21 2
    46   20   22 1
    47   22   27 ar
    48   22   23 ar
    49   23   24 ar
    50   23   52 1
    51   24   25 ar
    52   24   53 1
    53   25   26 ar
    54   25   28 1
    55   26   27 ar
    56   26   54 1
    57   27   55 1
    58   28   29 3
    59   56   57 1
@<TRIPOS>MOLECULE
ZINC12140890
   55    58     0     0     0
SMALL
USER_CHARGES
N-(2-diethylaminoethyl)-N-(5-methoxy-1,3-benzothiazol-2-yl)-1,3-benzothiazole-2-carboxamide
@<TRIPOS>ATOM
      1 C1         -5.9495   -5.0025   -0.3698 C.3       1 <0>        -0.1900
      2 C2         -4.5957   -4.3598   -0.6779 C.3       1 <0>        -0.0163
      3 C3         -4.0169   -6.0358   -2.3268 C.3       1 <0>        -0.0107
      4 C4         -3.3143   -7.3889   -2.4546 C.3       1 <0>        -0.1949
      5 C5         -2.2704   -4.8603   -1.1307 C.3       1 <0>        -0.0399
      6 C6         -1.7340   -4.6368    0.2847 C.3       1 <0>         0.0716
      7 N1         -0.3348   -4.2082    0.2146 N.am      1 <0>        -0.4969
      8 C7         -0.0196   -2.8620    0.2763 C.2       1 <0>         0.3508
      9 N2          1.1613   -2.2897    0.2303 N.2       1 <0>        -0.4851
     10 C8          1.3222   -0.9508    0.3026 C.ar      1 <0>         0.1328
     11 C9          2.5290   -0.2142    0.2645 C.ar      1 <0>        -0.0961
     12 C10         2.5164    1.1577    0.3505 C.ar      1 <0>         0.1502
     13 C11         1.3245    1.8650    0.4779 C.ar      1 <0>        -0.1712
     14 C12         0.1286    1.1729    0.5175 C.ar      1 <0>        -0.0224
     15 C13         0.1336   -0.1971    0.4318 C.ar      1 <0>        -0.1709
     16 S1         -1.1161   -1.4602    0.4396 S.3       1 <0>         0.0138
     17 O1          3.6931    1.8380    0.3106 O.3       1 <0>        -0.3095
     18 C14         3.6226    3.2622    0.4038 C.3       1 <0>         0.0227
     19 C15         0.6453   -5.1248    0.0902 C.2       1 <0>         0.6019
     20 O2          1.7997   -4.7666   -0.0384 O.2       1 <0>        -0.3878
     21 C16         0.3167   -6.5652    0.1100 C.2       1 <0>         0.0967
     22 N3          1.1306   -7.5975    0.1276 N.2       1 <0>        -0.3897
     23 C17         0.6968   -8.8617    0.1445 C.ar      1 <0>         0.0538
     24 C18         1.4665  -10.0529    0.1647 C.ar      1 <0>        -0.0253
     25 C19         0.8643  -11.2696    0.1813 C.ar      1 <0>        -0.1126
     26 C20        -0.5194  -11.4014    0.1788 C.ar      1 <0>        -0.0501
     27 C21        -1.3083  -10.2684    0.1590 C.ar      1 <0>        -0.0833
     28 C22        -0.7115   -9.0297    0.1425 C.ar      1 <0>        -0.1081
     29 S2         -1.2896   -7.3500    0.1242 S.3       1 <0>        -0.0653
     30 H1         -5.8373   -5.7099    0.4519 H         1 <0>         0.0816
     31 H2         -6.6634   -4.2286   -0.0880 H         1 <0>         0.1107
     32 H3         -6.3123   -5.5270   -1.2538 H         1 <0>         0.0831
     33 H4         -4.2329   -3.8353    0.2060 H         1 <0>         0.1292
     34 H5         -4.7079   -3.6524   -1.4996 H         1 <0>         0.1394
     35 H6         -5.0966   -6.1836   -2.3475 H         1 <0>         0.1387
     36 H7         -3.7221   -5.3935   -3.1567 H         1 <0>         0.1360
     37 H8         -2.2383   -7.2511   -2.3477 H         1 <0>         0.0807
     38 H9         -3.6739   -8.0601   -1.6747 H         1 <0>         0.0809
     39 H10        -3.5301   -7.8194   -3.4324 H         1 <0>         0.1102
     40 H11        -2.2850   -3.9119   -1.6677 H         1 <0>         0.1523
     41 H12        -1.6263   -5.5654   -1.6562 H         1 <0>         0.1411
     42 H13        -1.8014   -5.5665    0.8498 H         1 <0>         0.1232
     43 H14        -2.3255   -3.8668    0.7800 H         1 <0>         0.1301
     44 H15         3.4701   -0.7349    0.1666 H         1 <0>         0.1483
     45 H16         1.3338    2.9429    0.5440 H         1 <0>         0.1516
     46 H17        -0.8051    1.7075    0.6109 H         1 <0>         0.1433
     47 H18         4.6286    3.6794    0.3595 H         1 <0>         0.1085
     48 H19         3.0309    3.6517   -0.4246 H         1 <0>         0.0610
     49 H20         3.1546    3.5418    1.3476 H         1 <0>         0.0613
     50 H21         2.5448   -9.9913    0.1672 H         1 <0>         0.1467
     51 H22         1.4768  -12.1589    0.1964 H         1 <0>         0.1486
     52 H23        -0.9734  -12.3812    0.1927 H         1 <0>         0.1521
     53 H24        -2.3849  -10.3543    0.1572 H         1 <0>         0.1426
     54 N4         -3.6339   -5.4231   -1.0373 N.4       1 <0>        -0.3930
     55 H25        -3.6473   -6.1455   -0.3078 H         1 <0>         0.4235
@<TRIPOS>BOND
     1    1    2 1
     2    1   30 1
     3    1   31 1
     4    1   32 1
     5    2   33 1
     6    2   34 1
     7    2   54 1
     8    3    4 1
     9    3   35 1
    10    3   36 1
    11    3   54 1
    12    4   37 1
    13    4   38 1
    14    4   39 1
    15    5    6 1
    16    5   40 1
    17    5   41 1
    18    5   54 1
    19    6    7 1
    20    6   42 1
    21    6   43 1
    22    7    8 1
    23    7   19 am
    24    8   16 1
    25    8    9 2
    26    9   10 1
    27   10   15 ar
    28   10   11 ar
    29   11   12 ar
    30   11   44 1
    31   12   13 ar
    32   12   17 1
    33   13   14 ar
    34   13   45 1
    35   14   15 ar
    36   14   46 1
    37   15   16 1
    38   17   18 1
    39   18   47 1
    40   18   48 1
    41   18   49 1
    42   19   20 2
    43   19   21 1
    44   21   29 1
    45   21   22 2
    46   22   23 1
    47   23   28 ar
    48   23   24 ar
    49   24   25 ar
    50   24   50 1
    51   25   26 ar
    52   25   51 1
    53   26   27 ar
    54   26   52 1
    55   27   28 ar
    56   27   53 1
    57   28   29 1
    58   54   55 1
@<TRIPOS>MOLECULE
ZINC19225261
   64    67     0     0     0
SMALL
USER_CHARGES
1-cinnamyl-4-[[2-(2,5-dimethoxyphenyl)-5-methyl-oxazol-4-yl]methyl]piperazine
@<TRIPOS>ATOM
      1 C1         -0.0127    1.0858    0.0080 C.3       1 <0>        -0.0787
      2 C2         -0.7181    1.5718    1.2479 C.2       1 <0>        -0.0423
      3 C3         -0.1482    1.8388    2.4365 C.2       1 <0>        -0.0118
      4 N1         -1.1148    2.2454    3.2741 N.2       1 <0>        -0.4570
      5 C4         -2.2592    2.2344    2.6310 C.2       1 <0>         0.2587
      6 O1         -2.0367    1.8253    1.3698 O.3       1 <0>        -0.1697
      7 C5         -3.5700    2.6138    3.1962 C.ar      1 <0>        -0.0247
      8 C6         -3.6666    3.0295    4.5251 C.ar      1 <0>        -0.0645
      9 C7         -4.8975    3.3835    5.0482 C.ar      1 <0>         0.0937
     10 C8         -6.0355    3.3264    4.2542 C.ar      1 <0>        -0.1406
     11 C9         -5.9473    2.9160    2.9380 C.ar      1 <0>        -0.1690
     12 C10        -4.7203    2.5637    2.3997 C.ar      1 <0>         0.1245
     13 O2         -4.6343    2.1655    1.1035 O.3       1 <0>        -0.3054
     14 C11        -5.8489    2.1389    0.3511 C.3       1 <0>         0.0204
     15 O3         -4.9933    3.7886    6.3428 O.3       1 <0>        -0.3123
     16 C12        -6.2944    4.1395    6.8182 C.3       1 <0>         0.0213
     17 C13         1.3158    1.7059    2.7686 C.3       1 <0>         0.1402
     18 N2          1.9999    2.9739    2.4820 N.3       1 <0>        -0.5328
     19 C14         1.9963    3.2602    1.0406 C.3       1 <0>         0.0174
     20 C15         2.6460    4.6235    0.7924 C.3       1 <0>         0.0020
     21 N3          4.0172    4.6132    1.3208 N.4       1 <0>        -0.3985
     22 C16         4.0209    4.3269    2.7622 C.3       1 <0>         0.0016
     23 C17         3.3712    2.9636    3.0105 C.3       1 <0>         0.0270
     24 C18         4.7014    5.8812    1.0343 C.3       1 <0>         0.0407
     25 C19         4.4678    6.2641   -0.4044 C.2       1 <0>        -0.2493
     26 C20         3.9539    7.4499   -0.6997 C.2       1 <0>        -0.0230
     27 C21         3.7247    7.8254   -2.1108 C.ar      1 <0>        -0.0964
     28 C22         4.0535    6.9363   -3.1347 C.ar      1 <0>        -0.1014
     29 C23         3.8318    7.2907   -4.4496 C.ar      1 <0>        -0.1210
     30 C24         3.2957    8.5291   -4.7544 C.ar      1 <0>        -0.0960
     31 C25         2.9725    9.4172   -3.7442 C.ar      1 <0>        -0.1188
     32 C26         3.1840    9.0728   -2.4250 C.ar      1 <0>        -0.0909
     33 H1          1.0610    0.9716    0.2180 H         1 <0>         0.0869
     34 H2         -0.1521    1.8157   -0.8031 H         1 <0>         0.0854
     35 H3         -0.4321    0.1154   -0.2959 H         1 <0>         0.0902
     36 H4         -2.7825    3.0743    5.1438 H         1 <0>         0.1533
     37 H5         -6.9938    3.6039    4.6677 H         1 <0>         0.1408
     38 H6         -6.8362    2.8739    2.3260 H         1 <0>         0.1426
     39 H7         -5.6378    1.8008   -0.6741 H         1 <0>         0.1058
     40 H8         -6.2843    3.1486    0.3219 H         1 <0>         0.0600
     41 H9         -6.5596    1.4468    0.8264 H         1 <0>         0.0609
     42 H10        -6.2291    4.4465    7.8725 H         1 <0>         0.1069
     43 H11        -6.9636    3.2709    6.7300 H         1 <0>         0.0589
     44 H12        -6.6921    4.9712    6.2181 H         1 <0>         0.0582
     45 H13         1.4291    1.4610    3.8350 H         1 <0>         0.1085
     46 H14         1.7587    0.9044    2.1592 H         1 <0>         0.0655
     47 H15         2.5633    2.4808    0.5106 H         1 <0>         0.0625
     48 H16         0.9599    3.2743    0.6721 H         1 <0>         0.1213
     49 H17         2.6700    4.8269   -0.2884 H         1 <0>         0.1376
     50 H18         2.0623    5.4057    1.2998 H         1 <0>         0.1324
     51 H19         5.0573    4.3128    3.1305 H         1 <0>         0.1378
     52 H20         3.4540    5.1063    3.2923 H         1 <0>         0.1352
     53 H21         3.3461    2.7596    4.0911 H         1 <0>         0.1266
     54 H22         3.9539    2.1807    2.5030 H         1 <0>         0.0629
     55 H23         4.3050    6.6685    1.6923 H         1 <0>         0.1269
     56 H24         5.7806    5.7638    1.2119 H         1 <0>         0.1377
     57 H25         4.7237    5.5596   -1.2095 H         1 <0>         0.1389
     58 H26         3.6981    8.1544    0.1054 H         1 <0>         0.1321
     59 H27         4.4768    5.9713   -2.8983 H         1 <0>         0.1233
     60 H28         4.0817    6.6017   -5.2429 H         1 <0>         0.1295
     61 H29         3.1286    8.8036   -5.7855 H         1 <0>         0.1304
     62 H30         2.5540   10.3824   -3.9886 H         1 <0>         0.1315
     63 H31         2.9312    9.7670   -1.6372 H         1 <0>         0.1286
     64 H32         4.5708    3.8095    0.8132 H         1 <0>         0.4373
@<TRIPOS>BOND
     1    1    2 1
     2    1   33 1
     3    1   34 1
     4    1   35 1
     5    2    6 1
     6    2    3 2
     7    3    4 1
     8    3   17 1
     9    4    5 2
    10    5    6 1
    11    5    7 1
    12    7   12 ar
    13    7    8 ar
    14    8    9 ar
    15    8   36 1
    16    9   10 ar
    17    9   15 1
    18   10   11 ar
    19   10   37 1
    20   11   12 ar
    21   11   38 1
    22   12   13 1
    23   13   14 1
    24   14   39 1
    25   14   40 1
    26   14   41 1
    27   15   16 1
    28   16   42 1
    29   16   43 1
    30   16   44 1
    31   17   18 1
    32   17   45 1
    33   17   46 1
    34   18   23 1
    35   18   19 1
    36   19   20 1
    37   19   47 1
    38   19   48 1
    39   20   21 1
    40   20   49 1
    41   20   50 1
    42   21   22 1
    43   21   24 1
    44   21   64 1
    45   22   23 1
    46   22   51 1
    47   22   52 1
    48   23   53 1
    49   23   54 1
    50   24   25 1
    51   24   55 1
    52   24   56 1
    53   25   26 2
    54   25   57 1
    55   26   27 1
    56   26   58 1
    57   27   32 ar
    58   27   28 ar
    59   28   29 ar
    60   28   59 1
    61   29   30 ar
    62   29   60 1
    63   30   31 ar
    64   30   61 1
    65   31   32 ar
    66   31   62 1
    67   32   63 1
@<TRIPOS>MOLECULE
ZINC35844853
   64    66     0     0     0
SMALL
USER_CHARGES

@<TRIPOS>ATOM
      1 C1          1.5986    1.6762   -1.5452 C.3       1 <0>        -0.0858
      2 C2          1.3999    0.2053   -1.2843 C.2       1 <0>         0.0211
      3 C3          0.2248   -0.3961   -1.0260 C.2       1 <0>        -0.2171
      4 C4          0.4993   -1.7713   -0.8458 C.2       1 <0>        -0.1910
      5 C5          1.8258   -1.9280   -1.0048 C.2       1 <0>        -0.0558
      6 O1          2.3653   -0.7284   -1.2759 O.3       1 <0>        -0.1627
      7 C6          2.5780   -3.2297   -0.9017 C.3       1 <0>         0.1773
      8 N1          2.6344   -3.8668   -2.2197 N.am      1 <0>        -0.5832
      9 C7          3.7483   -3.5775   -3.1262 C.3       1 <0>         0.1148
     10 C8          4.8802   -4.5766   -2.8783 C.3       1 <0>        -0.0889
     11 C9          6.0261   -4.2790   -3.8107 C.ar      1 <0>        -0.0942
     12 C10         6.0764   -4.8758   -5.0565 C.ar      1 <0>        -0.1121
     13 C11         7.1275   -4.6028   -5.9118 C.ar      1 <0>        -0.1165
     14 C12         8.1281   -3.7327   -5.5214 C.ar      1 <0>        -0.1151
     15 C13         8.0774   -3.1351   -4.2759 C.ar      1 <0>        -0.1162
     16 C14         7.0241   -3.4048   -3.4223 C.ar      1 <0>        -0.1142
     17 C15         1.6614   -4.7191   -2.5984 C.2       1 <0>         0.5036
     18 O2          1.7080   -5.2466   -3.6895 O.2       1 <0>        -0.5062
     19 C16         0.5155   -5.0168   -1.6659 C.3       1 <0>        -0.0477
     20 N2         -0.4034   -5.9669   -2.3070 N.4       1 <0>        -0.3719
     21 C17         0.2805   -7.2518   -2.5048 C.3       1 <0>        -0.0167
     22 C18        -0.6214   -8.1913   -3.3079 C.3       1 <0>         0.0311
     23 O3         -0.8428   -7.6425   -4.6086 O.3       1 <0>        -0.3921
     24 C19        -1.6776   -8.4467   -5.4444 C.3       1 <0>         0.0305
     25 C20        -1.5795   -6.1650   -1.4495 C.3       1 <0>         0.0383
     26 C21        -2.3537   -4.8757   -1.3528 C.ar      1 <0>        -0.1690
     27 C22        -2.3104   -4.1289   -0.1901 C.ar      1 <0>        -0.0822
     28 C23        -3.0194   -2.9460   -0.1000 C.ar      1 <0>        -0.0875
     29 C24        -3.7739   -2.5071   -1.1722 C.ar      1 <0>        -0.0930
     30 C25        -3.8193   -3.2521   -2.3373 C.ar      1 <0>         0.0855
     31 C26        -3.1032   -4.4363   -2.4297 C.ar      1 <0>         0.0827
     32 F1         -3.1416   -5.1626   -3.5682 F         1 <0>        -0.1167
     33 F2         -4.5566   -2.8242   -3.3853 F         1 <0>        -0.1116
     34 H1          2.6550    1.8733   -1.7281 H         1 <0>         0.0811
     35 H2          1.0173    1.9720   -2.4185 H         1 <0>         0.0919
     36 H3          1.2674    2.2471   -0.6778 H         1 <0>         0.0937
     37 H4         -0.7427    0.0802   -0.9669 H         1 <0>         0.1528
     38 H5         -0.2183   -2.5470   -0.6229 H         1 <0>         0.1399
     39 H6          3.5908   -3.0371   -0.5477 H         1 <0>         0.1179
     40 H7          2.0675   -3.8899   -0.2006 H         1 <0>         0.1133
     41 H8          3.4083   -3.6624   -4.1583 H         1 <0>         0.0966
     42 H9          4.1107   -2.5656   -2.9450 H         1 <0>         0.0935
     43 H10         5.2202   -4.4917   -1.8461 H         1 <0>         0.0774
     44 H11         4.5179   -5.5885   -3.0594 H         1 <0>         0.0769
     45 H12         5.2946   -5.5556   -5.3615 H         1 <0>         0.1210
     46 H13         7.1671   -5.0696   -6.8849 H         1 <0>         0.1246
     47 H14         8.9497   -3.5199   -6.1894 H         1 <0>         0.1251
     48 H15         8.8594   -2.4556   -3.9708 H         1 <0>         0.1252
     49 H16         6.9825   -2.9351   -2.4507 H         1 <0>         0.1213
     50 H17         0.9011   -5.4504   -0.7433 H         1 <0>         0.1645
     51 H18        -0.0171   -4.0933   -1.4385 H         1 <0>         0.1557
     52 H19         1.2109   -7.0883   -3.0487 H         1 <0>         0.1583
     53 H20         0.5001   -7.6995   -1.5356 H         1 <0>         0.1442
     54 H21        -0.1404   -9.1649   -3.4014 H         1 <0>         0.0998
     55 H22        -1.5761   -8.3054   -2.7944 H         1 <0>         0.0713
     56 H23        -1.2185   -9.4256   -5.5822 H         1 <0>         0.0546
     57 H24        -2.6542   -8.5662   -4.9752 H         1 <0>         0.0500
     58 H25        -1.7969   -7.9617   -6.4132 H         1 <0>         0.0995
     59 H26        -2.2155   -6.9394   -1.8784 H         1 <0>         0.1485
     60 H27        -1.2563   -6.4703   -0.4543 H         1 <0>         0.1525
     61 H28        -1.7222   -4.4705    0.6488 H         1 <0>         0.1543
     62 H29        -2.9844   -2.3640    0.8091 H         1 <0>         0.1580
     63 H30        -4.3280   -1.5829   -1.1003 H         1 <0>         0.1614
     64 H31        -0.6963   -5.6007   -3.2004 H         1 <0>         0.4379
@<TRIPOS>BOND
     1    1    2 1
     2    1   34 1
     3    1   35 1
     4    1   36 1
     5    2    6 1
     6    2    3 2
     7    3    4 1
     8    3   37 1
     9    4    5 2
    10    4   38 1
    11    5    6 1
    12    5    7 1
    13    7    8 1
    14    7   39 1
    15    7   40 1
    16    8    9 1
    17    8   17 am
    18    9   10 1
    19    9   41 1
    20    9   42 1
    21   10   11 1
    22   10   43 1
    23   10   44 1
    24   11   16 ar
    25   11   12 ar
    26   12   13 ar
    27   12   45 1
    28   13   14 ar
    29   13   46 1
    30   14   15 ar
    31   14   47 1
    32   15   16 ar
    33   15   48 1
    34   16   49 1
    35   17   18 2
    36   17   19 1
    37   19   20 1
    38   19   50 1
    39   19   51 1
    40   20   21 1
    41   20   25 1
    42   20   64 1
    43   21   22 1
    44   21   52 1
    45   21   53 1
    46   22   23 1
    47   22   54 1
    48   22   55 1
    49   23   24 1
    50   24   56 1
    51   24   57 1
    52   24   58 1
    53   25   26 1
    54   25   59 1
    55   25   60 1
    56   26   31 ar
    57   26   27 ar
    58   27   28 ar
    59   27   61 1
    60   28   29 ar
    61   28   62 1
    62   29   30 ar
    63   29   63 1
    64   30   31 ar
    65   30   33 1
    66   31   32 1
@<TRIPOS>MOLECULE
ZINC40426000
   68    71     0     0     0
SMALL
USER_CHARGES

@<TRIPOS>ATOM
      1 C1         -1.0975    1.6358   -0.1882 C.3       1 <0>        -0.1885
      2 C2         -0.8166    0.1322   -0.1539 C.3       1 <0>        -0.0095
      3 N1         -2.0776   -0.6052   -0.3084 N.4       1 <0>        -0.3864
      4 C3         -2.9474   -0.3277    0.8420 C.3       1 <0>        -0.0032
      5 C4         -4.3716   -0.8190    0.5448 C.3       1 <0>        -0.0798
      6 C5         -4.2704   -2.2398    0.0468 C.2       1 <0>         0.0809
      7 C6         -3.1013   -2.7939   -0.3739 C.2       1 <0>        -0.2709
      8 C7         -3.3623   -4.1054   -0.7567 C.2       1 <0>         0.0880
      9 N2         -4.6416   -4.3358   -0.5770 N.2       1 <0>        -0.2336
     10 N3         -5.2332   -3.1673   -0.0710 N.pl3     1 <0>        -0.2728
     11 C8         -6.5878   -2.9995    0.2534 C.ar      1 <0>         0.0814
     12 C9         -7.2730   -1.8747   -0.1821 C.ar      1 <0>        -0.0791
     13 C10        -8.6070   -1.7115    0.1385 C.ar      1 <0>        -0.1387
     14 C11        -9.2622   -2.6670    0.8937 C.ar      1 <0>        -0.0573
     15 C12        -8.5863   -3.7903    1.3312 C.ar      1 <0>        -0.1949
     16 C13        -7.2497   -3.9645    1.0086 C.ar      1 <0>         0.1552
     17 O1         -6.5850   -5.0718    1.4330 O.3       1 <0>        -0.2991
     18 C14        -7.3278   -6.0190    2.2032 C.3       1 <0>         0.0226
     19 C15        -2.3519   -5.0902   -1.2863 C.3       1 <0>         0.1762
     20 N4         -1.7661   -5.8367   -0.1701 N.am      1 <0>        -0.5930
     21 C16        -2.3842   -7.0864    0.2799 C.3       1 <0>         0.0971
     22 C17        -1.9555   -8.2286   -0.6434 C.3       1 <0>        -0.1210
     23 C18        -2.4230   -9.5619   -0.0561 C.3       1 <0>        -0.1520
     24 C19        -2.5839   -8.0313   -2.0244 C.3       1 <0>        -0.1573
     25 C20        -0.6587   -5.3737    0.4428 C.2       1 <0>         0.5740
     26 O2         -0.1419   -4.3404    0.0649 O.2       1 <0>        -0.5467
     27 C21        -0.0724   -6.1226    1.5747 C.ar      1 <0>        -0.1407
     28 C22        -0.0415   -7.5178    1.5510 C.ar      1 <0>        -0.1075
     29 C23         0.5075   -8.2106    2.6102 C.ar      1 <0>        -0.1239
     30 C24         1.0263   -7.5254    3.6945 C.ar      1 <0>        -0.0894
     31 C25         0.9983   -6.1424    3.7245 C.ar      1 <0>        -0.1257
     32 C26         0.4579   -5.4374    2.6689 C.ar      1 <0>        -0.0658
     33 C27        -1.7919   -2.0468   -0.3955 C.3       1 <0>         0.0947
     34 H1         -0.1618    2.1830   -0.0735 H         1 <0>         0.1073
     35 H2         -1.5573    1.8979   -1.1411 H         1 <0>         0.0806
     36 H3         -1.7737    1.8977    0.6256 H         1 <0>         0.0796
     37 H4         -0.1404   -0.1297   -0.9677 H         1 <0>         0.1340
     38 H5         -0.3568   -0.1298    0.7990 H         1 <0>         0.1303
     39 H6         -2.5617   -0.8441    1.7210 H         1 <0>         0.1330
     40 H7         -2.9662    0.7454    1.0318 H         1 <0>         0.1443
     41 H8         -4.9708   -0.7880    1.4548 H         1 <0>         0.1273
     42 H9         -4.8273   -0.1907   -0.2204 H         1 <0>         0.1123
     43 H10        -6.7637   -1.1265   -0.7714 H         1 <0>         0.1342
     44 H11        -9.1393   -0.8353   -0.2011 H         1 <0>         0.1415
     45 H12       -10.3049   -2.5349    1.1425 H         1 <0>         0.1405
     46 H13        -9.1008   -4.5345    1.9211 H         1 <0>         0.1441
     47 H14        -8.1665   -6.3889    1.6135 H         1 <0>         0.0629
     48 H15        -6.6805   -6.8522    2.4769 H         1 <0>         0.1065
     49 H16        -7.7029   -5.5383    3.1067 H         1 <0>         0.0603
     50 H17        -2.8435   -5.7834   -1.9688 H         1 <0>         0.1165
     51 H18        -1.5655   -4.5538   -1.8172 H         1 <0>         0.1078
     52 H19        -2.0644   -7.3035    1.2991 H         1 <0>         0.0970
     53 H20        -3.4691   -6.9853    0.2533 H         1 <0>         0.0861
     54 H21        -0.8695   -8.2332   -0.7357 H         1 <0>         0.0818
     55 H22        -3.5091   -9.5573    0.0362 H         1 <0>         0.0613
     56 H23        -2.1177  -10.3756   -0.7139 H         1 <0>         0.0658
     57 H24        -1.9754   -9.7024    0.9277 H         1 <0>         0.0595
     58 H25        -2.2509   -7.0815   -2.4427 H         1 <0>         0.0603
     59 H26        -2.2786   -8.8451   -2.6821 H         1 <0>         0.0631
     60 H27        -3.6700   -8.0268   -1.9321 H         1 <0>         0.0610
     61 H28        -0.4467   -8.0539    0.7056 H         1 <0>         0.1486
     62 H29         0.5320   -9.2902    2.5932 H         1 <0>         0.1320
     63 H30         1.4546   -8.0725    4.5214 H         1 <0>         0.1306
     64 H31         1.4046   -5.6135    4.5739 H         1 <0>         0.1310
     65 H32         0.4411   -4.3577    2.6913 H         1 <0>         0.1256
     66 H33        -1.2626   -2.2606   -1.3241 H         1 <0>         0.1375
     67 H34        -1.1811   -2.3519    0.4542 H         1 <0>         0.1412
     68 H35        -2.5391   -0.3044   -1.1538 H         1 <0>         0.4216
@<TRIPOS>BOND
     1    1    2 1
     2    1   34 1
     3    1   35 1
     4    1   36 1
     5    2    3 1
     6    2   37 1
     7    2   38 1
     8    3   33 1
     9    3    4 1
    10    3   68 1
    11    4    5 1
    12    4   39 1
    13    4   40 1
    14    5    6 1
    15    5   41 1
    16    5   42 1
    17    6   10 1
    18    6    7 2
    19    7    8 1
    20    7   33 1
    21    8    9 2
    22    8   19 1
    23    9   10 1
    24   10   11 1
    25   11   16 ar
    26   11   12 ar
    27   12   13 ar
    28   12   43 1
    29   13   14 ar
    30   13   44 1
    31   14   15 ar
    32   14   45 1
    33   15   16 ar
    34   15   46 1
    35   16   17 1
    36   17   18 1
    37   18   47 1
    38   18   48 1
    39   18   49 1
    40   19   20 1
    41   19   50 1
    42   19   51 1
    43   20   21 1
    44   20   25 am
    45   21   22 1
    46   21   52 1
    47   21   53 1
    48   22   23 1
    49   22   24 1
    50   22   54 1
    51   23   55 1
    52   23   56 1
    53   23   57 1
    54   24   58 1
    55   24   59 1
    56   24   60 1
    57   25   26 2
    58   25   27 1
    59   27   32 ar
    60   27   28 ar
    61   28   29 ar
    62   28   61 1
    63   29   30 ar
    64   29   62 1
    65   30   31 ar
    66   30   63 1
    67   31   32 ar
    68   31   64 1
    69   32   65 1
    70   33   66 1
    71   33   67 1
@<TRIPOS>MOLECULE
ZINC04188877
   62    64     0     0     0
SMALL
USER_CHARGES
N-(3-diethylaminopropyl)-N-(4-phenylthiazol-2-yl)-cyclohexanecarboxamide
@<TRIPOS>ATOM
      1 C1          7.6887    0.6661   -2.8893 C.3       1 <0>        -0.1853
      2 C2          6.3346   -0.0075   -3.1206 C.3       1 <0>        -0.0140
      3 C3          7.2424   -2.1081   -2.3295 C.3       1 <0>        -0.0120
      4 C4          7.0691   -2.8373   -3.6633 C.3       1 <0>        -0.1881
      5 C5          6.1118   -0.6212   -0.7890 C.3       1 <0>        -0.0060
      6 C6          4.8423    0.2115   -0.5991 C.3       1 <0>        -0.1697
      7 C7          4.7810    0.7270    0.8401 C.3       1 <0>         0.1195
      8 N1          3.5655    1.5243    1.0219 N.am      1 <0>        -0.5164
      9 C8          2.3890    0.9126    1.4371 C.2       1 <0>         0.2969
     10 N2          1.3829    0.4591    0.7130 N.2       1 <0>        -0.4721
     11 C9          0.3262   -0.1036    1.2799 C.2       1 <0>         0.0998
     12 C10         0.2763   -0.2170    2.6414 C.2       1 <0>        -0.1611
     13 S1          1.8367    0.5300    3.0934 S.3       1 <0>         0.0385
     14 C11        -0.7896   -0.6113    0.4451 C.ar      1 <0>        -0.0340
     15 C12        -0.7376   -0.4877   -0.9424 C.ar      1 <0>        -0.0874
     16 C13        -1.7766   -0.9663   -1.7144 C.ar      1 <0>        -0.1227
     17 C14        -2.8731   -1.5578   -1.1133 C.ar      1 <0>        -0.1066
     18 C15        -2.9322   -1.6788    0.2635 C.ar      1 <0>        -0.1157
     19 C16        -1.8967   -1.2086    1.0453 C.ar      1 <0>        -0.1021
     20 C17         3.5884    2.8512    0.7864 C.2       1 <0>         0.5410
     21 O1          4.5863    3.3692    0.3317 O.2       1 <0>        -0.4994
     22 C18         2.3740    3.6911    1.0880 C.3       1 <0>        -0.1043
     23 C19         1.5333    3.8462   -0.1808 C.3       1 <0>        -0.1046
     24 C20         0.3004    4.6989    0.1254 C.3       1 <0>        -0.1161
     25 C21         0.7436    6.0789    0.6154 C.3       1 <0>        -0.1239
     26 C22         1.5844    5.9237    1.8843 C.3       1 <0>        -0.1199
     27 C23         2.8173    5.0710    1.5780 C.3       1 <0>        -0.1037
     28 H1          7.7727    1.5428   -3.5315 H         1 <0>         0.1060
     29 H2          7.7693    0.9710   -1.8459 H         1 <0>         0.0802
     30 H3          8.4886   -0.0355   -3.1257 H         1 <0>         0.0809
     31 H4          6.2895   -0.3923   -4.1394 H         1 <0>         0.1294
     32 H5          5.5367    0.7199   -2.9712 H         1 <0>         0.1283
     33 H6          8.2089   -1.6045   -2.3137 H         1 <0>         0.1337
     34 H7          7.1947   -2.8284   -1.5127 H         1 <0>         0.1283
     35 H8          7.1960   -2.1303   -4.4831 H         1 <0>         0.0801
     36 H9          7.8160   -3.6269   -3.7455 H         1 <0>         0.1062
     37 H10         6.0717   -3.2743   -3.7116 H         1 <0>         0.0792
     38 H11         6.9859   -0.0021   -0.5872 H         1 <0>         0.1368
     39 H12         6.0983   -1.4662   -0.1006 H         1 <0>         0.1316
     40 H13         3.9682   -0.4076   -0.8009 H         1 <0>         0.0937
     41 H14         4.8558    1.0565   -1.2875 H         1 <0>         0.0966
     42 H15         5.6552    1.3461    1.0418 H         1 <0>         0.1097
     43 H16         4.7676   -0.1180    1.5285 H         1 <0>         0.0955
     44 H17        -0.4930   -0.6404    3.2701 H         1 <0>         0.2078
     45 H18         0.1159   -0.0221   -1.4125 H         1 <0>         0.1270
     46 H19        -1.7357   -0.8744   -2.7897 H         1 <0>         0.1252
     47 H20        -3.6859   -1.9269   -1.7211 H         1 <0>         0.1269
     48 H21        -3.7906   -2.1419    0.7275 H         1 <0>         0.1299
     49 H22        -1.9440   -1.3037    2.1200 H         1 <0>         0.1257
     50 H23         1.7789    3.2049    1.8610 H         1 <0>         0.0886
     51 H24         2.1284    4.3324   -0.9539 H         1 <0>         0.0708
     52 H25         1.2175    2.8631   -0.5299 H         1 <0>         0.0702
     53 H26        -0.2947    4.2127    0.8984 H         1 <0>         0.0628
     54 H27        -0.2986    4.8095   -0.7786 H         1 <0>         0.0700
     55 H28        -0.1347    6.6864    0.8336 H         1 <0>         0.0682
     56 H29         1.3388    6.5651   -0.1576 H         1 <0>         0.0655
     57 H30         0.9893    5.4376    2.6573 H         1 <0>         0.0639
     58 H31         1.9002    6.9068    2.2334 H         1 <0>         0.0724
     59 H32         3.4163    4.9605    2.4820 H         1 <0>         0.0665
     60 H33         3.4124    5.5572    0.8050 H         1 <0>         0.0787
     61 N3          6.1457   -1.1291   -2.1766 N.4       1 <0>        -0.3947
     62 H34         5.2534   -1.5928   -2.3839 H         1 <0>         0.4278
@<TRIPOS>BOND
     1    1    2 1
     2    1   28 1
     3    1   29 1
     4    1   30 1
     5    2   31 1
     6    2   32 1
     7    2   61 1
     8    3    4 1
     9    3   33 1
    10    3   34 1
    11    3   61 1
    12    4   35 1
    13    4   36 1
    14    4   37 1
    15    5    6 1
    16    5   38 1
    17    5   39 1
    18    5   61 1
    19    6    7 1
    20    6   40 1
    21    6   41 1
    22    7    8 1
    23    7   42 1
    24    7   43 1
    25    8    9 1
    26    8   20 am
    27    9   13 1
    28    9   10 2
    29   10   11 1
    30   11   12 2
    31   11   14 1
    32   12   13 1
    33   12   44 1
    34   14   19 ar
    35   14   15 ar
    36   15   16 ar
    37   15   45 1
    38   16   17 ar
    39   16   46 1
    40   17   18 ar
    41   17   47 1
    42   18   19 ar
    43   18   48 1
    44   19   49 1
    45   20   21 2
    46   20   22 1
    47   22   27 1
    48   22   23 1
    49   22   50 1
    50   23   24 1
    51   23   51 1
    52   23   52 1
    53   24   25 1
    54   24   53 1
    55   24   54 1
    56   25   26 1
    57   25   55 1
    58   25   56 1
    59   26   27 1
    60   26   57 1
    61   26   58 1
    62   27   59 1
    63   27   60 1
    64   61   62 1
@<TRIPOS>MOLECULE
ZINC01629153
   61    62     0     0     0
SMALL
USER_CHARGES
1-[4,4-bis(ethylsulfanyl)-2-[(4-methoxyphenyl)methyl]pyrrolidin-1-yl]-N-tert-butyl-methanimine
@<TRIPOS>ATOM
      1 C1         -3.5593    4.9503   -1.3056 C.3       1 <0>        -0.1416
      2 C2         -2.3884    4.3461   -0.5277 C.3       1 <0>        -0.0863
      3 S1         -2.2086    2.5957   -0.9686 S.3       1 <0>        -0.1994
      4 C3         -0.8944    1.9991    0.1303 C.3       1 <0>        -0.0401
      5 C4          0.4805    2.5941   -0.2730 C.3       1 <0>        -0.1000
      6 C5          1.4791    1.5339    0.2375 C.3       1 <0>         0.1304
      7 H1          1.8710    1.8317    1.2100 H         1 <0>         0.1152
      8 N1          0.7446    0.2663    0.3612 N.pl3     1 <0>        -0.5520
      9 C6         -0.6483    0.4830   -0.0706 C.3       1 <0>         0.1011
     10 C7          1.2680   -0.9200    0.8036 C.cat     1 <0>         0.5132
     11 C8          0.9298   -3.2764    1.3984 C.3       1 <0>         0.1535
     12 C9          1.1228   -3.1136    2.9074 C.3       1 <0>        -0.1697
     13 C10        -0.1624   -4.3144    1.1329 C.3       1 <0>        -0.1689
     14 C11         2.2415   -3.7427    0.7638 C.3       1 <0>        -0.1794
     15 C12         2.6285    1.3741   -0.7597 C.3       1 <0>        -0.0910
     16 C13         3.6581    0.4312   -0.1925 C.ar      1 <0>        -0.1542
     17 C14         4.5926    0.8946    0.7151 C.ar      1 <0>        -0.0640
     18 C15         5.5340    0.0310    1.2408 C.ar      1 <0>        -0.1989
     19 C16         5.5483   -1.2997    0.8487 C.ar      1 <0>         0.1417
     20 C17         4.6132   -1.7609   -0.0664 C.ar      1 <0>        -0.1543
     21 C18         3.6703   -0.8946   -0.5849 C.ar      1 <0>        -0.1011
     22 O1          6.4767   -2.1501    1.3606 O.3       1 <0>        -0.3110
     23 C19         7.4081   -1.6060    2.2978 C.3       1 <0>         0.0223
     24 S2         -1.2807    2.3712    1.8633 S.3       1 <0>        -0.2009
     25 C20        -2.8439    1.5004    2.1611 C.3       1 <0>        -0.0926
     26 C21        -3.3551    1.8355    3.5638 C.3       1 <0>        -0.1404
     27 H2         -3.3687    4.8627   -2.3752 H         1 <0>         0.0670
     28 H3         -4.4760    4.4164   -1.0549 H         1 <0>         0.0672
     29 H4         -3.6672    6.0021   -1.0407 H         1 <0>         0.0827
     30 H5         -2.5789    4.4337    0.5419 H         1 <0>         0.0992
     31 H6         -1.4717    4.8799   -0.7784 H         1 <0>         0.0879
     32 H7          0.5518    2.7013   -1.3554 H         1 <0>         0.1181
     33 H8          0.6471    3.5507    0.2222 H         1 <0>         0.1131
     34 H9         -1.3321   -0.0977    0.5487 H         1 <0>         0.1015
     35 H10        -0.7660    0.2153   -1.1206 H         1 <0>         0.1174
     36 H11         2.2920   -0.9649    1.1438 H         1 <0>         0.2313
     37 H12         0.1883   -2.7815    3.3595 H         1 <0>         0.0741
     38 H13         1.4168   -4.0694    3.3412 H         1 <0>         0.0976
     39 H14         1.9009   -2.3741    3.0965 H         1 <0>         0.0670
     40 H15        -0.3000   -4.4304    0.0580 H         1 <0>         0.0755
     41 H16         0.1315   -5.2702    1.5668 H         1 <0>         0.0979
     42 H17        -1.0970   -3.9822    1.5851 H         1 <0>         0.0736
     43 H18         3.0467   -3.0690    1.0571 H         1 <0>         0.0753
     44 H19         2.4708   -4.7526    1.1038 H         1 <0>         0.0985
     45 H20         2.1417   -3.7386   -0.3216 H         1 <0>         0.0757
     46 H21         2.2434    0.9708   -1.6963 H         1 <0>         0.0898
     47 H22         3.0875    2.3454   -0.9437 H         1 <0>         0.1099
     48 H23         4.5837    1.9316    1.0167 H         1 <0>         0.1340
     49 H24         6.2609    0.3925    1.9531 H         1 <0>         0.1381
     50 H25         4.6221   -2.7965   -0.3729 H         1 <0>         0.1397
     51 H26         2.9419   -1.2532   -1.2970 H         1 <0>         0.1279
     52 H27         7.9749   -0.8048    1.8233 H         1 <0>         0.0615
     53 H28         6.8686   -1.2093    3.1577 H         1 <0>         0.0601
     54 H29         8.0915   -2.3887    2.6270 H         1 <0>         0.1088
     55 H30        -3.5808    1.8134    1.4215 H         1 <0>         0.1000
     56 H31        -2.6822    0.4255    2.0805 H         1 <0>         0.0770
     57 H32        -2.6182    1.5224    4.3034 H         1 <0>         0.0646
     58 H33        -3.5169    2.9104    3.6443 H         1 <0>         0.0705
     59 H34        -4.2944    1.3122    3.7427 H         1 <0>         0.0814
     60 N2          0.4718   -1.9828    0.7843 N.pl3     1 <0>        -0.6479
     61 H35        -0.4565   -1.9210    0.3499 H         1 <0>         0.4322
@<TRIPOS>BOND
     1    1    2 1
     2    1   27 1
     3    1   28 1
     4    1   29 1
     5    2    3 1
     6    2   30 1
     7    2   31 1
     8    3    4 1
     9    4    9 1
    10    4    5 1
    11    4   24 1
    12    5    6 1
    13    5   32 1
    14    5   33 1
    15    6    7 1
    16    6    8 1
    17    6   15 1
    18    8    9 1
    19    8   10 1
    20    9   34 1
    21    9   35 1
    22   10   36 1
    23   10   60 2
    24   11   12 1
    25   11   13 1
    26   11   14 1
    27   11   60 1
    28   12   37 1
    29   12   38 1
    30   12   39 1
    31   13   40 1
    32   13   41 1
    33   13   42 1
    34   14   43 1
    35   14   44 1
    36   14   45 1
    37   15   16 1
    38   15   46 1
    39   15   47 1
    40   16   21 ar
    41   16   17 ar
    42   17   18 ar
    43   17   48 1
    44   18   19 ar
    45   18   49 1
    46   19   20 ar
    47   19   22 1
    48   20   21 ar
    49   20   50 1
    50   21   51 1
    51   22   23 1
    52   23   52 1
    53   23   53 1
    54   23   54 1
    55   24   25 1
    56   25   26 1
    57   25   55 1
    58   25   56 1
    59   26   57 1
    60   26   58 1
    61   26   59 1
    62   60   61 1
@<TRIPOS>MOLECULE
ZINC12862336
   46    49     0     0     0
SMALL
USER_CHARGES
1-(2-furyl)-N-(2-thienylmethyl)-N-[[3-[4-(trifluoromethyl)phenyl]-1,2,4-oxadiazol-5-yl]methyl]methanamine
@<TRIPOS>ATOM
      1 C1          3.0213    2.3282   -5.7954 C.2       1 <0>        -0.2182
      2 C2          2.3462    2.4003   -4.5553 C.2       1 <0>        -0.1283
      3 C3          3.2899    2.3912   -3.5968 C.2       1 <0>        -0.1180
      4 O1          4.4942    2.3236   -4.1875 O.3       1 <0>        -0.1691
      5 C4          4.3371    2.2793   -5.5206 C.2       1 <0>         0.0217
      6 C5          3.0388    2.4530   -2.1121 C.3       1 <0>         0.0906
      7 C6          2.2880    1.1062   -0.2453 C.3       1 <0>         0.0942
      8 C7          0.8688    1.6034   -0.3443 C.2       1 <0>        -0.2770
      9 C8         -0.2713    0.8972   -0.5413 C.2       1 <0>        -0.0725
     10 C9         -1.4758    1.5725   -0.6038 C.2       1 <0>        -0.1803
     11 C10        -1.4825    2.9197   -0.4551 C.2       1 <0>        -0.1105
     12 S1          0.2528    3.2752   -0.2319 S.3       1 <0>         0.0921
     13 C11         4.1888    0.3937   -1.5650 C.3       1 <0>         0.1058
     14 C12         3.9575   -1.0932   -1.4841 C.2       1 <0>         0.1038
     15 N1          3.7261   -1.9004   -2.4893 N.2       1 <0>        -0.4204
     16 C13         3.5841   -3.1291   -1.9432 C.2       1 <0>         0.2263
     17 N2          3.7361   -2.9973   -0.6512 N.2       1 <0>        -0.3338
     18 O2          3.9556   -1.8372   -0.3736 O.3       1 <0>         0.1197
     19 C14         3.3070   -4.3912   -2.6735 C.ar      1 <0>        -0.0137
     20 C15         3.2698   -4.3993   -4.0662 C.ar      1 <0>        -0.0720
     21 C16         3.0169   -5.5769   -4.7404 C.ar      1 <0>        -0.0696
     22 C17         2.7899   -6.7452   -4.0356 C.ar      1 <0>        -0.1510
     23 C18         2.8205   -6.7417   -2.6528 C.ar      1 <0>        -0.0671
     24 C19         3.0776   -5.5709   -1.9686 C.ar      1 <0>        -0.0779
     25 C20         2.5076   -8.0265   -4.7771 C.3       1 <0>         0.5062
     26 F1          1.1292   -8.1547   -4.9787 F         1 <0>        -0.1706
     27 F2          3.1596   -8.0024   -6.0147 F         1 <0>        -0.1715
     28 F3          2.9721   -9.1117   -4.0264 F         1 <0>        -0.1710
     29 H1          2.5675    2.3145   -6.7754 H         1 <0>         0.1641
     30 H2          1.2778    2.4522   -4.4061 H         1 <0>         0.1599
     31 H3          5.1326    2.2198   -6.2486 H         1 <0>         0.2196
     32 H4          2.1245    3.0149   -1.9213 H         1 <0>         0.1572
     33 H5          3.8778    2.9469   -1.6220 H         1 <0>         0.1566
     34 H6          2.8599    1.7673    0.4058 H         1 <0>         0.1565
     35 H7          2.2916    0.0974    0.1675 H         1 <0>         0.1453
     36 H8         -0.2386   -0.1766   -0.6522 H         1 <0>         0.1409
     37 H9         -2.3982    1.0342   -0.7647 H         1 <0>         0.1511
     38 H10        -2.3197    3.6017   -0.4723 H         1 <0>         0.2017
     39 H11         4.7395    0.6267   -2.4764 H         1 <0>         0.1739
     40 H12         4.7651    0.7194   -0.6990 H         1 <0>         0.1764
     41 H13         3.4425   -3.4868   -4.6174 H         1 <0>         0.1478
     42 H14         2.9922   -5.5852   -5.8201 H         1 <0>         0.1509
     43 H15         2.6425   -7.6568   -2.1074 H         1 <0>         0.1515
     44 H16         3.1006   -5.5692   -0.8889 H         1 <0>         0.1457
     45 N3          2.8780    1.0757   -1.6001 N.4       1 <0>        -0.4018
     46 H17         2.2496    0.5585   -2.2260 H         1 <0>         0.4351
@<TRIPOS>BOND
     1    1    5 2
     2    1    2 1
     3    1   29 1
     4    2    3 2
     5    2   30 1
     6    3    4 1
     7    3    6 1
     8    4    5 1
     9    5   31 1
    10    6   32 1
    11    6   33 1
    12    6   45 1
    13    7    8 1
    14    7   34 1
    15    7   35 1
    16    7   45 1
    17    8   12 1
    18    8    9 2
    19    9   10 1
    20    9   36 1
    21   10   11 2
    22   10   37 1
    23   11   12 1
    24   11   38 1
    25   13   14 1
    26   13   39 1
    27   13   40 1
    28   13   45 1
    29   14   18 1
    30   14   15 2
    31   15   16 1
    32   16   17 2
    33   16   19 1
    34   17   18 1
    35   19   24 ar
    36   19   20 ar
    37   20   21 ar
    38   20   41 1
    39   21   22 ar
    40   21   42 1
    41   22   23 ar
    42   22   25 1
    43   23   24 ar
    44   23   43 1
    45   24   44 1
    46   25   26 1
    47   25   27 1
    48   25   28 1
    49   45   46 1
@<TRIPOS>MOLECULE
ZINC34944788
   57    59     0     0     0
SMALL
USER_CHARGES

@<TRIPOS>ATOM
      1 C1         -0.8069    1.3456    0.0950 C.3       1 <0>        -0.1152
      2 C2         -0.2404   -0.0493    0.0281 C.2       1 <0>        -0.1571
      3 C3          0.1220   -0.6716    1.1410 C.2       1 <0>        -0.0813
      4 C4          0.1245    0.0563    2.4275 C.ar      1 <0>        -0.0658
      5 C5         -0.2629   -0.5927    3.6005 C.ar      1 <0>        -0.1054
      6 C6         -0.2584    0.0924    4.7981 C.ar      1 <0>        -0.1196
      7 C7          0.1287    1.4200    4.8375 C.ar      1 <0>        -0.1146
      8 C8          0.5134    2.0693    3.6781 C.ar      1 <0>        -0.1226
      9 C9          0.5197    1.3936    2.4751 C.ar      1 <0>        -0.1107
     10 C10        -0.0858   -0.7366   -1.3041 C.3       1 <0>         0.1565
     11 N1         -1.3486   -1.3832   -1.6695 N.am      1 <0>        -0.6070
     12 C11        -2.3519   -0.6466   -2.4421 C.3       1 <0>         0.1110
     13 C12        -2.1046   -0.8630   -3.9365 C.3       1 <0>        -0.1655
     14 C13        -3.1525   -0.0938   -4.7434 C.3       1 <0>         0.0927
     15 N2         -2.9157   -0.3009   -6.1742 N.pl3     1 <0>        -0.4070
     16 C14        -2.1188    0.4620   -6.9844 C.2       1 <0>         0.0259
     17 C15        -2.1857   -0.0775   -8.2165 C.2       1 <0>         0.0044
     18 N3         -3.0013   -1.1408   -8.1602 N.pl3     1 <0>        -0.4759
     19 C16        -3.4383   -1.2837   -6.9389 C.cat     1 <0>         0.2875
     20 C17        -1.5873   -2.6556   -1.2947 C.2       1 <0>         0.5506
     21 O1         -0.7539   -3.2674   -0.6529 O.2       1 <0>        -0.5262
     22 C18        -2.8495   -3.3018   -1.6599 C.2       1 <0>        -0.2339
     23 C19        -3.0883   -4.5746   -1.2851 C.2       1 <0>         0.0012
     24 C20        -4.3572   -5.2242   -1.6522 C.ar      1 <0>        -0.0861
     25 C21        -5.3150   -4.5264   -2.3946 C.ar      1 <0>        -0.1032
     26 C22        -6.5012   -5.1418   -2.7345 C.ar      1 <0>        -0.1251
     27 C23        -6.7450   -6.4467   -2.3430 C.ar      1 <0>        -0.1015
     28 C24        -5.8020   -7.1440   -1.6080 C.ar      1 <0>        -0.1181
     29 C25        -4.6086   -6.5443   -1.2653 C.ar      1 <0>        -0.0883
     30 H1          0.0054    2.0705    0.0434 H         1 <0>         0.0697
     31 H2         -1.4872    1.5020   -0.7422 H         1 <0>         0.0534
     32 H3         -1.3487    1.4731    1.0322 H         1 <0>         0.0710
     33 H4          0.4154   -1.7105    1.1078 H         1 <0>         0.1271
     34 H5         -0.5659   -1.6289    3.5709 H         1 <0>         0.1224
     35 H6         -0.5580   -0.4087    5.7067 H         1 <0>         0.1246
     36 H7          0.1301    1.9519    5.7774 H         1 <0>         0.1237
     37 H8          0.8138    3.1060    3.7154 H         1 <0>         0.1240
     38 H9          0.8252    1.9001    1.5715 H         1 <0>         0.1272
     39 H10         0.1790   -0.0012   -2.0638 H         1 <0>         0.0838
     40 H11         0.7008   -1.4881   -1.2361 H         1 <0>         0.0935
     41 H12        -3.3472   -1.0074   -2.1826 H         1 <0>         0.0902
     42 H13        -2.2793    0.4163   -2.2120 H         1 <0>         0.0922
     43 H14        -1.1094   -0.5022   -4.1960 H         1 <0>         0.0874
     44 H15        -2.1772   -1.9260   -4.1666 H         1 <0>         0.0848
     45 H16        -4.1478   -0.4546   -4.4839 H         1 <0>         0.1240
     46 H17        -3.0799    0.9692   -4.5133 H         1 <0>         0.1280
     47 H18        -1.5465    1.3299   -6.6919 H         1 <0>         0.2230
     48 H19        -1.6726    0.2829   -9.0959 H         1 <0>         0.2239
     49 H20        -4.1090   -2.0581   -6.5969 H         1 <0>         0.2590
     50 H21        -3.5892   -2.7588   -2.2295 H         1 <0>         0.1268
     51 H22        -2.3486   -5.1175   -0.7155 H         1 <0>         0.1379
     52 H23        -5.1263   -3.5080   -2.7006 H         1 <0>         0.1209
     53 H24        -7.2420   -4.6041   -3.3076 H         1 <0>         0.1258
     54 H25        -7.6761   -6.9232   -2.6120 H         1 <0>         0.1280
     55 H26        -5.9997   -8.1618   -1.3058 H         1 <0>         0.1309
     56 H27        -3.8718   -7.0911   -0.6956 H         1 <0>         0.1312
     57 H28        -3.2276   -1.7151   -8.9084 H         1 <0>         0.4656
@<TRIPOS>BOND
     1    1    2 1
     2    1   30 1
     3    1   31 1
     4    1   32 1
     5    2    3 2
     6    2   10 1
     7    3    4 1
     8    3   33 1
     9    4    9 ar
    10    4    5 ar
    11    5    6 ar
    12    5   34 1
    13    6    7 ar
    14    6   35 1
    15    7    8 ar
    16    7   36 1
    17    8    9 ar
    18    8   37 1
    19    9   38 1
    20   10   11 1
    21   10   39 1
    22   10   40 1
    23   11   12 1
    24   11   20 am
    25   12   13 1
    26   12   41 1
    27   12   42 1
    28   13   14 1
    29   13   43 1
    30   13   44 1
    31   14   15 1
    32   14   45 1
    33   14   46 1
    34   15   19 1
    35   15   16 1
    36   16   17 2
    37   16   47 1
    38   17   18 1
    39   17   48 1
    40   18   19 2
    41   18   57 1
    42   19   49 1
    43   20   21 2
    44   20   22 1
    45   22   23 2
    46   22   50 1
    47   23   24 1
    48   23   51 1
    49   24   29 ar
    50   24   25 ar
    51   25   26 ar
    52   25   52 1
    53   26   27 ar
    54   26   53 1
    55   27   28 ar
    56   27   54 1
    57   28   29 ar
    58   28   55 1
    59   29   56 1
@<TRIPOS>MOLECULE
ZINC40403518
   54    55     0     0     0
SMALL
USER_CHARGES

@<TRIPOS>ATOM
      1 C1         -0.4536    1.2799   -0.4835 C.3       1 <0>        -0.1555
      2 C2         -0.3493   -0.2404   -0.3467 C.3       1 <0>        -0.1129
      3 C3          0.4944   -0.5852    0.8822 C.3       1 <0>        -0.0103
      4 H1          0.0724   -0.0977    1.7610 H         1 <0>         0.0831
      5 C4          1.9292   -0.0986    0.6687 C.3       1 <0>        -0.1490
      6 C5          0.4956   -2.0781    1.0879 C.2       1 <0>         0.2956
      7 N1          0.9390   -2.9485    0.2285 N.2       1 <0>        -0.4670
      8 C6          0.7912   -4.2016    0.7303 C.ar      1 <0>         0.0477
      9 C7          1.0914   -5.4764    0.2431 C.ar      1 <0>        -0.0014
     10 C8          0.8169   -6.5777    1.0033 C.ar      1 <0>        -0.1834
     11 C9          0.2406   -6.4454    2.2588 C.ar      1 <0>        -0.0556
     12 C10        -0.0641   -5.1978    2.7597 C.ar      1 <0>        -0.1118
     13 C11         0.2082   -4.0671    2.0016 C.ar      1 <0>         0.0685
     14 N2          0.0388   -2.7117    2.2016 N.pl3     1 <0>        -0.4940
     15 C12        -0.5306   -2.0741    3.3914 C.3       1 <0>         0.1154
     16 C13        -2.0444   -1.9335    3.2195 C.3       1 <0>        -0.1721
     17 C14        -2.6391   -1.2676    4.4621 C.3       1 <0>        -0.0103
     18 N3         -4.0694   -1.0133    4.2442 N.4       1 <0>        -0.3856
     19 C15        -4.7824   -2.2927    4.1304 C.3       1 <0>        -0.0163
     20 C16        -6.2484   -2.0301    3.7799 C.3       1 <0>        -0.1889
     21 C17        -4.6095   -0.2510    5.3779 C.3       1 <0>        -0.0162
     22 C18        -3.9681    1.1377    5.4105 C.3       1 <0>        -0.1888
     23 C19         1.1427   -7.9501    0.4729 C.3       1 <0>         0.5115
     24 F1          2.4435   -8.2996    0.8512 F         1 <0>        -0.1723
     25 F2          0.2387   -8.8797    0.9982 F         1 <0>        -0.1746
     26 F3          1.0484   -7.9452   -0.9229 F         1 <0>        -0.1736
     27 H2          0.5441    1.7038   -0.5972 H         1 <0>         0.0653
     28 H3         -1.0547    1.5255   -1.3590 H         1 <0>         0.0630
     29 H4         -0.9246    1.6935    0.4083 H         1 <0>         0.0507
     30 H5         -1.3470   -0.6643   -0.2330 H         1 <0>         0.0579
     31 H6          0.1217   -0.6540   -1.2385 H         1 <0>         0.0826
     32 H7          2.3512   -0.5861   -0.2102 H         1 <0>         0.0752
     33 H8          1.9283    0.9812    0.5199 H         1 <0>         0.0751
     34 H9          2.5302   -0.3442    1.5442 H         1 <0>         0.0574
     35 H10         1.5394   -5.5908   -0.7330 H         1 <0>         0.1480
     36 H11         0.0291   -7.3260    2.8472 H         1 <0>         0.1469
     37 H12        -0.5121   -5.1004    3.7376 H         1 <0>         0.1317
     38 H13        -0.3198   -2.6866    4.2680 H         1 <0>         0.1044
     39 H14        -0.0866   -1.0872    3.5224 H         1 <0>         0.1067
     40 H15        -2.2553   -1.3209    2.3430 H         1 <0>         0.0957
     41 H16        -2.4884   -2.9203    3.0885 H         1 <0>         0.0974
     42 H17        -2.5138   -1.9255    5.3220 H         1 <0>         0.1355
     43 H18        -2.1267   -0.3238    4.6489 H         1 <0>         0.1374
     44 H19        -4.3238   -2.8956    3.3466 H         1 <0>         0.1296
     45 H20        -4.7255   -2.8260    5.0793 H         1 <0>         0.1310
     46 H21        -6.7774   -2.9794    3.6954 H         1 <0>         0.1076
     47 H22        -6.7069   -1.4271    4.5637 H         1 <0>         0.0817
     48 H23        -6.3052   -1.4968    2.8310 H         1 <0>         0.0806
     49 H24        -5.6891   -0.1501    5.2666 H         1 <0>         0.1345
     50 H25        -4.3875   -0.7756    6.3072 H         1 <0>         0.1307
     51 H26        -2.9029    1.0411    5.6204 H         1 <0>         0.0803
     52 H27        -4.1055    1.6241    4.4448 H         1 <0>         0.0803
     53 H28        -4.4391    1.7372    6.1895 H         1 <0>         0.1078
     54 H29        -4.1912   -0.4836    3.3942 H         1 <0>         0.4229
@<TRIPOS>BOND
     1    1    2 1
     2    1   27 1
     3    1   28 1
     4    1   29 1
     5    2    3 1
     6    2   30 1
     7    2   31 1
     8    3    4 1
     9    3    5 1
    10    3    6 1
    11    5   32 1
    12    5   33 1
    13    5   34 1
    14    6   14 1
    15    6    7 2
    16    7    8 1
    17    8   13 ar
    18    8    9 ar
    19    9   10 ar
    20    9   35 1
    21   10   11 ar
    22   10   23 1
    23   11   12 ar
    24   11   36 1
    25   12   13 ar
    26   12   37 1
    27   13   14 1
    28   14   15 1
    29   15   16 1
    30   15   38 1
    31   15   39 1
    32   16   17 1
    33   16   40 1
    34   16   41 1
    35   17   18 1
    36   17   42 1
    37   17   43 1
    38   18   19 1
    39   18   21 1
    40   18   54 1
    41   19   20 1
    42   19   44 1
    43   19   45 1
    44   20   46 1
    45   20   47 1
    46   20   48 1
    47   21   22 1
    48   21   49 1
    49   21   50 1
    50   22   51 1
    51   22   52 1
    52   22   53 1
    53   23   24 1
    54   23   25 1
    55   23   26 1
@<TRIPOS>MOLECULE
ZINC03662253
   53    55     0     0     0
SMALL
USER_CHARGES
1-(2-azepan-1-ylethyl)-3-(4-chlorophenyl)-1-(2-thienylmethyl)thiourea
@<TRIPOS>ATOM
      1 C1         -1.1837    1.2671    0.7835 C.2       1 <0>        -0.1664
      2 C2          0.0637    0.7357    0.5146 C.2       1 <0>        -0.1112
      3 C3          1.1112    1.5765    0.3330 C.2       1 <0>        -0.2167
      4 S1          0.3444    3.1740    0.5505 S.3       1 <0>         0.0569
      5 C4         -1.3203    2.6130    0.8687 C.2       1 <0>        -0.1378
      6 C5          2.5499    1.2481    0.0274 C.3       1 <0>         0.1822
      7 N1          2.7404    1.1930   -1.4241 N.pl3     1 <0>        -0.5657
      8 C6          3.1160    2.4027   -2.1601 C.3       1 <0>         0.0870
      9 C7          4.6410    2.5097   -2.2213 C.3       1 <0>        -0.0233
     10 C8          4.5145    3.6749   -4.3503 C.3       1 <0>        -0.0009
     11 C9          5.0984    4.7552   -5.2196 C.3       1 <0>        -0.1405
     12 C10         6.3365    4.1856   -5.9432 C.3       1 <0>        -0.1335
     13 C11         7.5085    4.1390   -5.0759 C.3       1 <0>        -0.1307
     14 C12         7.2879    3.2327   -3.8466 C.3       1 <0>        -0.1410
     15 C13         6.4683    3.9891   -2.8369 C.3       1 <0>         0.0064
     16 C14         2.5702    0.0293   -2.0824 C.2       1 <0>         0.5559
     17 S2          2.7930   -0.0352   -3.7786 S.2       1 <0>        -0.5960
     18 N2          2.2247   -1.0837   -1.4053 N.pl3     1 <0>        -0.6157
     19 C15         1.9352   -2.2636   -2.0998 C.ar      1 <0>         0.1129
     20 C16         1.1759   -2.2184   -3.2617 C.ar      1 <0>        -0.0568
     21 C17         0.8972   -3.3836   -3.9488 C.ar      1 <0>        -0.0998
     22 C18         1.3630   -4.5969   -3.4734 C.ar      1 <0>        -0.0222
     23 C19         2.1146   -4.6454   -2.3125 C.ar      1 <0>        -0.1023
     24 C20         2.4017   -3.4825   -1.6252 C.ar      1 <0>        -0.1052
     25 Cl1         1.0043   -6.0605   -4.3353 Cl        1 <0>        -0.0549
     26 H1         -2.0359    0.6195    0.9275 H         1 <0>         0.1433
     27 H2          0.2007   -0.3334    0.4459 H         1 <0>         0.1290
     28 H3         -2.2072    3.1951    1.0713 H         1 <0>         0.1943
     29 H4          3.1959    2.0178    0.4497 H         1 <0>         0.1149
     30 H5          2.8026    0.2819    0.4640 H         1 <0>         0.1057
     31 H6          2.7144    2.3517   -3.1722 H         1 <0>         0.1355
     32 H7          2.7105    3.2777   -1.6520 H         1 <0>         0.1052
     33 H8          5.0426    2.5607   -1.2093 H         1 <0>         0.1262
     34 H9          5.0465    1.6347   -2.7294 H         1 <0>         0.1442
     35 H10         4.7628    2.7048   -4.7808 H         1 <0>         0.1371
     36 H11         3.4300    3.7833   -4.3358 H         1 <0>         0.1235
     37 H12         5.3933    5.6032   -4.6015 H         1 <0>         0.0843
     38 H13         4.3589    5.0735   -5.9544 H         1 <0>         0.1104
     39 H14         6.5604    4.8114   -6.8071 H         1 <0>         0.0840
     40 H15         6.1105    3.1762   -6.2871 H         1 <0>         0.0750
     41 H16         7.7365    5.1487   -4.7346 H         1 <0>         0.0727
     42 H17         8.3554    3.7595   -5.6477 H         1 <0>         0.0839
     43 H18         8.2507    2.9659   -3.4108 H         1 <0>         0.1090
     44 H19         6.7562    2.3301   -4.1477 H         1 <0>         0.0877
     45 H20         6.6422    5.0567   -2.9718 H         1 <0>         0.1265
     46 H21         6.7949    3.7040   -1.8368 H         1 <0>         0.1224
     47 H22         2.1768   -1.0668   -0.4367 H         1 <0>         0.4084
     48 H23         0.8081   -1.2723   -3.6305 H         1 <0>         0.1495
     49 H24         0.3115   -3.3483   -4.8555 H         1 <0>         0.1422
     50 H25         2.4772   -5.5936   -1.9438 H         1 <0>         0.1429
     51 H26         2.9889   -3.5208   -0.7196 H         1 <0>         0.1346
     52 N3          4.9867    3.7543   -2.9259 N.4       1 <0>        -0.3995
     53 H27         4.5066    4.5384   -2.4689 H         1 <0>         0.4263
@<TRIPOS>BOND
     1    1    5 2
     2    1    2 1
     3    1   26 1
     4    2    3 2
     5    2   27 1
     6    3    4 1
     7    3    6 1
     8    4    5 1
     9    5   28 1
    10    6    7 1
    11    6   29 1
    12    6   30 1
    13    7    8 1
    14    7   16 1
    15    8    9 1
    16    8   31 1
    17    8   32 1
    18    9   33 1
    19    9   34 1
    20    9   52 1
    21   10   11 1
    22   10   35 1
    23   10   36 1
    24   10   52 1
    25   11   12 1
    26   11   37 1
    27   11   38 1
    28   12   13 1
    29   12   39 1
    30   12   40 1
    31   13   14 1
    32   13   41 1
    33   13   42 1
    34   14   15 1
    35   14   43 1
    36   14   44 1
    37   15   45 1
    38   15   46 1
    39   15   52 1
    40   16   17 2
    41   16   18 1
    42   18   19 1
    43   18   47 1
    44   19   24 ar
    45   19   20 ar
    46   20   21 ar
    47   20   48 1
    48   21   22 ar
    49   21   49 1
    50   22   23 ar
    51   22   25 1
    52   23   24 ar
    53   23   50 1
    54   24   51 1
    55   52   53 1
@<TRIPOS>MOLECULE
ZINC13782313
   56    59     0     0     0
SMALL
USER_CHARGES
4,4-bis(4-fluorophenyl)-N-[(6-pyrazol-1-yl-2-pyridyl)methyl]butan-1-amine
@<TRIPOS>ATOM
      1 C1         -6.8526    0.1982   -2.4591 C.ar      1 <0>        -0.0404
      2 C2         -5.4790    0.0449   -2.3315 C.ar      1 <0>        -0.1600
      3 C3         -4.9249   -0.0597   -1.0707 C.ar      1 <0>         0.0827
      4 N1         -5.6826   -0.0053    0.0076 N.ar      1 <0>        -0.4987
      5 C4         -6.9946    0.1450   -0.0727 C.ar      1 <0>         0.3966
      6 C5         -7.6205    0.2517   -1.3087 C.ar      1 <0>        -0.1346
      7 N2         -7.7586    0.1974    1.0971 N.pl3     1 <0>        -0.3407
      8 C6         -7.2855    0.1019    2.3670 C.2       1 <0>         0.0690
      9 C7         -8.3421    0.2014    3.2059 C.2       1 <0>        -0.2462
     10 C8         -9.4968    0.3539    2.4299 C.2       1 <0>         0.0820
     11 N3         -9.1492    0.3517    1.1688 N.2       1 <0>        -0.2815
     12 C9         -3.4349   -0.2320   -0.9249 C.3       1 <0>         0.0644
     13 C10        -1.3522    0.9512   -0.5713 C.3       1 <0>        -0.0057
     14 C11        -0.7363    2.3355   -0.3580 C.3       1 <0>        -0.1525
     15 C12         0.7801    2.2010   -0.2054 C.3       1 <0>        -0.1091
     16 C13         1.3960    3.5852    0.0080 C.3       1 <0>         0.0018
     17 C14         0.9124    4.1538    1.3171 C.ar      1 <0>        -0.0959
     18 C15         0.3562    5.4188    1.3573 C.ar      1 <0>        -0.0844
     19 C16        -0.0920    5.9394    2.5564 C.ar      1 <0>        -0.1494
     20 C17         0.0258    5.1977    3.7197 C.ar      1 <0>         0.1037
     21 C18         0.5878    3.9329    3.6791 C.ar      1 <0>        -0.1502
     22 C19         1.0305    3.4123    2.4779 C.ar      1 <0>        -0.0889
     23 F1         -0.4078    5.7075    4.8933 F         1 <0>        -0.1345
     24 C20         2.8981    3.4678    0.0356 C.ar      1 <0>        -0.0979
     25 C21         3.5043    2.5573    0.8810 C.ar      1 <0>        -0.0864
     26 C22         4.8816    2.4454    0.9037 C.ar      1 <0>        -0.1504
     27 C23         5.6548    3.2530    0.0870 C.ar      1 <0>         0.1060
     28 C24         5.0467    4.1683   -0.7555 C.ar      1 <0>        -0.1489
     29 C25         3.6691    4.2747   -0.7803 C.ar      1 <0>        -0.0809
     30 F2          7.0015    3.1478    0.1117 F         1 <0>        -0.1343
     31 H1         -7.3113    0.2787   -3.4335 H         1 <0>         0.1599
     32 H2         -4.8506    0.0041   -3.2089 H         1 <0>         0.1526
     33 H3         -8.6917    0.3743   -1.3709 H         1 <0>         0.1618
     34 H4         -6.2527   -0.0275    2.6547 H         1 <0>         0.1828
     35 H5         -8.3021    0.1654    4.2846 H         1 <0>         0.1641
     36 H6        -10.5033    0.4558    2.8079 H         1 <0>         0.2020
     37 H7         -3.0318   -0.6886   -1.8288 H         1 <0>         0.1509
     38 H8         -3.2253   -0.8737   -0.0691 H         1 <0>         0.1477
     39 H9         -0.9346    0.5028   -1.4728 H         1 <0>         0.1351
     40 H10        -1.1282    0.3177    0.2869 H         1 <0>         0.1336
     41 H11        -0.9603    2.9690   -1.2162 H         1 <0>         0.0905
     42 H12        -1.1539    2.7839    0.5435 H         1 <0>         0.0909
     43 H13         1.0041    1.5674    0.6529 H         1 <0>         0.0803
     44 H14         1.1976    1.7525   -1.1068 H         1 <0>         0.0849
     45 H15         1.0980    4.2449   -0.8069 H         1 <0>         0.0948
     46 H16         0.2682    5.9988    0.4505 H         1 <0>         0.1335
     47 H17        -0.5303    6.9260    2.5869 H         1 <0>         0.1386
     48 H18         0.6798    3.3534    4.5857 H         1 <0>         0.1380
     49 H19         1.4686    2.4257    2.4459 H         1 <0>         0.1321
     50 H20         2.9012    1.9304    1.5210 H         1 <0>         0.1302
     51 H21         5.3548    1.7312    1.5612 H         1 <0>         0.1384
     52 H22         5.6488    4.7985   -1.3932 H         1 <0>         0.1396
     53 H23         3.1946    4.9883   -1.4376 H         1 <0>         0.1336
     54 N4         -2.8135    1.0897   -0.7175 N.4       1 <0>        -0.5185
     55 H24        -3.2001    1.5160    0.1328 H         1 <0>         0.4359
     56 H25        -3.0177    1.6904   -1.5248 H         1 <0>         0.4321
@<TRIPOS>BOND
     1    1    6 ar
     2    1    2 ar
     3    1   31 1
     4    2    3 ar
     5    2   32 1
     6    3    4 ar
     7    3   12 1
     8    4    5 ar
     9    5    6 ar
    10    5    7 1
    11    6   33 1
    12    7   11 1
    13    7    8 1
    14    8    9 2
    15    8   34 1
    16    9   10 1
    17    9   35 1
    18   10   11 2
    19   10   36 1
    20   12   37 1
    21   12   38 1
    22   12   54 1
    23   13   14 1
    24   13   39 1
    25   13   40 1
    26   13   54 1
    27   14   15 1
    28   14   41 1
    29   14   42 1
    30   15   16 1
    31   15   43 1
    32   15   44 1
    33   16   17 1
    34   16   24 1
    35   16   45 1
    36   17   22 ar
    37   17   18 ar
    38   18   19 ar
    39   18   46 1
    40   19   20 ar
    41   19   47 1
    42   20   21 ar
    43   20   23 1
    44   21   22 ar
    45   21   48 1
    46   22   49 1
    47   24   29 ar
    48   24   25 ar
    49   25   26 ar
    50   25   50 1
    51   26   27 ar
    52   26   51 1
    53   27   28 ar
    54   27   30 1
    55   28   29 ar
    56   28   52 1
    57   29   53 1
    58   54   55 1
    59   54   56 1
@<TRIPOS>MOLECULE
ZINC35745323
   60    62     0     0     0
SMALL
USER_CHARGES

@<TRIPOS>ATOM
      1 C1          0.6720    1.3662   -1.0388 C.3       1 <0>        -0.1196
      2 C2          0.6961   -0.1405   -1.0530 C.2       1 <0>        -0.1645
      3 C3          0.9294   -0.8023    0.0532 C.2       1 <0>        -0.1654
      4 C4          0.4518   -0.8859   -2.3398 C.3       1 <0>         0.2922
      5 C5         -0.9155   -0.5386   -2.8697 C.2       1 <0>         0.0231
      6 C6         -1.7053   -1.3473   -3.5988 C.2       1 <0>        -0.1957
      7 C7         -2.8866   -0.6226   -3.8786 C.2       1 <0>        -0.1400
      8 C8         -2.7480    0.5855   -3.3038 C.2       1 <0>        -0.1068
      9 O1         -1.5546    0.6287   -2.6892 O.3       1 <0>        -0.1516
     10 C9         -3.7622    1.6997   -3.3387 C.3       1 <0>         0.0814
     11 N1         -4.6476    1.5926   -2.1714 N.4       1 <0>        -0.3815
     12 C10        -5.5650    2.7396   -2.1459 C.3       1 <0>         0.0295
     13 C11        -6.3655    2.7143   -0.8693 C.ar      1 <0>        -0.1231
     14 C12        -7.6242    2.1423   -0.8540 C.ar      1 <0>        -0.1015
     15 C13        -8.3595    2.1184    0.3161 C.ar      1 <0>        -0.0866
     16 C14        -7.8373    2.6668    1.4724 C.ar      1 <0>        -0.1225
     17 C15        -6.5771    3.2398    1.4584 C.ar      1 <0>         0.1084
     18 C16        -5.8389    3.2578    0.2869 C.ar      1 <0>        -0.1378
     19 F1         -6.0659    3.7765    2.5879 F         1 <0>        -0.1267
     20 C17        -5.4225    0.3476   -2.2572 C.3       1 <0>        -0.0177
     21 C18        -6.1116    0.2687   -3.6210 C.3       1 <0>         0.0515
     22 H1         -5.3827    0.4004   -4.4207 H         1 <0>         0.0981
     23 C19        -6.8417   -1.0891   -3.7769 C.3       1 <0>        -0.1455
     24 C20        -7.9304   -0.7201   -4.8212 C.3       1 <0>        -0.1556
     25 C21        -8.2587    0.7419   -4.4497 C.3       1 <0>         0.0468
     26 O2         -7.1425    1.2644   -3.7171 O.3       1 <0>        -0.3831
     27 C22         1.4971   -0.4955   -3.3527 C.2       1 <0>        -0.1398
     28 C23         2.2918   -1.4062   -3.8581 C.2       1 <0>        -0.1401
     29 C24         1.6283    0.9424   -3.7842 C.3       1 <0>        -0.1149
     30 O3          0.5255   -2.2922   -2.0970 O.3       1 <0>        -0.5248
     31 H2          1.6737    1.7475   -1.2371 H         1 <0>         0.0753
     32 H3         -0.0123    1.7259   -1.8072 H         1 <0>         0.0688
     33 H4          0.3372    1.7151   -0.0619 H         1 <0>         0.0658
     34 H5          0.9466   -1.8821    0.0430 H         1 <0>         0.1090
     35 H6          1.1044   -0.2681    0.9753 H         1 <0>         0.1102
     36 H7         -1.4801   -2.3564   -3.9111 H         1 <0>         0.1649
     37 H8         -3.7370   -0.9720   -4.4455 H         1 <0>         0.1592
     38 H9         -3.2475    2.6603   -3.3174 H         1 <0>         0.1482
     39 H10        -4.3534    1.6244   -4.2513 H         1 <0>         0.1599
     40 H11        -4.9913    3.6650   -2.1967 H         1 <0>         0.1365
     41 H12        -6.2406    2.6836   -2.9995 H         1 <0>         0.1692
     42 H13        -8.0333    1.7142   -1.7572 H         1 <0>         0.1497
     43 H14        -9.3425    1.6714    0.3269 H         1 <0>         0.1453
     44 H15        -8.4123    2.6487    2.3865 H         1 <0>         0.1478
     45 H16        -4.8539    3.7005    0.2758 H         1 <0>         0.1421
     46 H17        -4.7543   -0.5052   -2.1379 H         1 <0>         0.1409
     47 H18        -6.1749    0.3328   -1.4686 H         1 <0>         0.1415
     48 H19        -6.1692   -1.8545   -4.1642 H         1 <0>         0.0977
     49 H20        -7.2912   -1.4038   -2.8352 H         1 <0>         0.0918
     50 H21        -7.5333   -0.7831   -5.8344 H         1 <0>         0.0861
     51 H22        -8.8084   -1.3559   -4.7073 H         1 <0>         0.0960
     52 H23        -8.4117    1.3282   -5.3557 H         1 <0>         0.0840
     53 H24        -9.1558    0.7738   -3.8313 H         1 <0>         0.0832
     54 H25         2.1978   -2.4367   -3.5488 H         1 <0>         0.1155
     55 H26         3.0409   -1.1264   -4.5840 H         1 <0>         0.1085
     56 H27         2.3330    1.4553   -3.1296 H         1 <0>         0.0743
     57 H28         1.9916    0.9819   -4.8111 H         1 <0>         0.0716
     58 H29         0.6553    1.4300   -3.7239 H         1 <0>         0.0596
     59 H30        -0.1202   -2.6146   -1.4535 H         1 <0>         0.3865
     60 H31        -4.0934    1.5864   -1.3283 H         1 <0>         0.4246
@<TRIPOS>BOND
     1    1    2 1
     2    1   31 1
     3    1   32 1
     4    1   33 1
     5    2    3 2
     6    2    4 1
     7    3   34 1
     8    3   35 1
     9    4    5 1
    10    4   27 1
    11    4   30 1
    12    5    9 1
    13    5    6 2
    14    6    7 1
    15    6   36 1
    16    7    8 2
    17    7   37 1
    18    8    9 1
    19    8   10 1
    20   10   11 1
    21   10   38 1
    22   10   39 1
    23   11   12 1
    24   11   20 1
    25   11   60 1
    26   12   13 1
    27   12   40 1
    28   12   41 1
    29   13   18 ar
    30   13   14 ar
    31   14   15 ar
    32   14   42 1
    33   15   16 ar
    34   15   43 1
    35   16   17 ar
    36   16   44 1
    37   17   18 ar
    38   17   19 1
    39   18   45 1
    40   20   21 1
    41   20   46 1
    42   20   47 1
    43   21   22 1
    44   21   26 1
    45   21   23 1
    46   23   24 1
    47   23   48 1
    48   23   49 1
    49   24   25 1
    50   24   50 1
    51   24   51 1
    52   25   26 1
    53   25   52 1
    54   25   53 1
    55   27   28 2
    56   27   29 1
    57   28   54 1
    58   28   55 1
    59   29   56 1
    60   29   57 1
    61   29   58 1
    62   30   59 1
@<TRIPOS>MOLECULE
ZINC40314036
   62    64     0     0     0
SMALL
USER_CHARGES

@<TRIPOS>ATOM
      1 C1          0.3779   -1.1603   -0.3827 C.3       1 <0>        -0.1470
      2 C2         -0.2220   -2.5659   -0.4549 C.3       1 <0>        -0.0674
      3 C3          0.3204   -3.4118    0.6989 C.3       1 <0>        -0.1480
      4 C4         -1.7228   -2.4774   -0.3506 C.ar      1 <0>        -0.0354
      5 C5         -2.3059   -1.9175    0.7707 C.ar      1 <0>        -0.1136
      6 C6         -3.6826   -1.8364    0.8664 C.ar      1 <0>        -0.0948
      7 C7         -4.4761   -2.3147   -0.1595 C.ar      1 <0>        -0.1615
      8 C8         -3.8930   -2.8737   -1.2812 C.ar      1 <0>        -0.0849
      9 C9         -2.5162   -2.9510   -1.3788 C.ar      1 <0>        -0.1205
     10 C10        -5.9769   -2.2271   -0.0548 C.3       1 <0>         0.0317
     11 N1         -6.4212   -0.8960   -0.4891 N.4       1 <0>        -0.3717
     12 C11        -6.1172   -0.7195   -1.9154 C.3       1 <0>        -0.0188
     13 C12        -6.9760   -1.6784   -2.7424 C.3       1 <0>         0.0523
     14 H1         -8.0303   -1.5464   -2.4994 H         1 <0>         0.0955
     15 C13        -6.7392   -1.4436   -4.2555 C.3       1 <0>        -0.1464
     16 C14        -7.1316   -2.8305   -4.8340 C.3       1 <0>        -0.1552
     17 C15        -6.6692   -3.7932   -3.7192 C.3       1 <0>         0.0457
     18 O1         -6.5759   -3.0374   -2.5044 O.3       1 <0>        -0.3810
     19 C16        -7.8695   -0.7701   -0.2779 C.3       1 <0>        -0.0528
     20 C17        -8.3172    0.6462   -0.6448 C.3       1 <0>         0.0875
     21 H2         -8.1068    0.8323   -1.6980 H         1 <0>         0.1332
     22 C18        -9.8196    0.7877   -0.3921 C.3       1 <0>         0.0283
     23 O2        -10.2597    2.0702   -0.8430 O.3       1 <0>        -0.2984
     24 C19       -11.5792    2.3586   -0.6905 C.ar      1 <0>         0.1237
     25 C20       -12.4312    1.4283   -0.1133 C.ar      1 <0>        -0.1972
     26 C21       -13.7719    1.7231    0.0408 C.ar      1 <0>        -0.0692
     27 C22       -14.2653    2.9453   -0.3804 C.ar      1 <0>        -0.0657
     28 C23       -13.4172    3.8743   -0.9566 C.ar      1 <0>        -0.0670
     29 C24       -12.0746    3.5857   -1.1065 C.ar      1 <0>        -0.1314
     30 Cl1       -15.9507    3.3133   -0.1861 Cl        1 <0>        -0.0570
     31 O3         -7.6081    1.5927    0.1572 O.3       1 <0>        -0.5419
     32 H3          1.4634   -1.2243   -0.4581 H         1 <0>         0.0666
     33 H4         -0.0085   -0.5576   -1.2046 H         1 <0>         0.0565
     34 H5          0.1063   -0.6976    0.5661 H         1 <0>         0.0583
     35 H6          0.0496   -3.0286   -1.4037 H         1 <0>         0.0839
     36 H7          0.0487   -2.9491    1.6477 H         1 <0>         0.0584
     37 H8         -0.1071   -4.4132    0.6474 H         1 <0>         0.0581
     38 H9          1.4059   -3.4758    0.6234 H         1 <0>         0.0666
     39 H10        -1.6860   -1.5438    1.5722 H         1 <0>         0.1327
     40 H11        -4.1382   -1.3996    1.7428 H         1 <0>         0.1272
     41 H12        -4.5129   -3.2477   -2.0826 H         1 <0>         0.1433
     42 H13        -2.0605   -3.3844   -2.2568 H         1 <0>         0.1316
     43 H14        -6.4305   -2.9871   -0.6910 H         1 <0>         0.1628
     44 H15        -6.2792   -2.3915    0.9795 H         1 <0>         0.1292
     45 H16        -6.3343    0.3076   -2.2088 H         1 <0>         0.1430
     46 H17        -5.0628   -0.9324   -2.0912 H         1 <0>         0.1428
     47 H18        -7.3923   -0.6593   -4.6383 H         1 <0>         0.0985
     48 H19        -5.6930   -1.2150   -4.4586 H         1 <0>         0.0919
     49 H20        -8.2094   -2.8981   -4.9824 H         1 <0>         0.0857
     50 H21        -6.5977   -3.0283   -5.7635 H         1 <0>         0.0959
     51 H22        -7.3966   -4.5960   -3.5986 H         1 <0>         0.0832
     52 H23        -5.6945   -4.2106   -3.9719 H         1 <0>         0.0827
     53 H24        -8.3924   -1.4908   -0.9066 H         1 <0>         0.1480
     54 H25        -8.1023   -0.9650    0.7690 H         1 <0>         0.1407
     55 H26       -10.3543    0.0084   -0.9351 H         1 <0>         0.0825
     56 H27       -10.0193    0.6895    0.6749 H         1 <0>         0.0792
     57 H28       -12.0466    0.4739    0.2149 H         1 <0>         0.1335
     58 H29       -14.4355    0.9991    0.4901 H         1 <0>         0.1398
     59 H30       -13.8042    4.8276   -1.2851 H         1 <0>         0.1460
     60 H31       -11.4120    4.3130   -1.5520 H         1 <0>         0.1434
     61 H32        -7.7487    1.4864    1.1079 H         1 <0>         0.3904
     62 H33        -5.9405   -0.1893    0.0472 H         1 <0>         0.4267
@<TRIPOS>BOND
     1    1    2 1
     2    1   32 1
     3    1   33 1
     4    1   34 1
     5    2    3 1
     6    2    4 1
     7    2   35 1
     8    3   36 1
     9    3   37 1
    10    3   38 1
    11    4    9 ar
    12    4    5 ar
    13    5    6 ar
    14    5   39 1
    15    6    7 ar
    16    6   40 1
    17    7    8 ar
    18    7   10 1
    19    8    9 ar
    20    8   41 1
    21    9   42 1
    22   10   11 1
    23   10   43 1
    24   10   44 1
    25   11   12 1
    26   11   19 1
    27   11   62 1
    28   12   13 1
    29   12   45 1
    30   12   46 1
    31   13   14 1
    32   13   18 1
    33   13   15 1
    34   15   16 1
    35   15   47 1
    36   15   48 1
    37   16   17 1
    38   16   49 1
    39   16   50 1
    40   17   18 1
    41   17   51 1
    42   17   52 1
    43   19   20 1
    44   19   53 1
    45   19   54 1
    46   20   21 1
    47   20   22 1
    48   20   31 1
    49   22   23 1
    50   22   55 1
    51   22   56 1
    52   23   24 1
    53   24   29 ar
    54   24   25 ar
    55   25   26 ar
    56   25   57 1
    57   26   27 ar
    58   26   58 1
    59   27   28 ar
    60   27   30 1
    61   28   29 ar
    62   28   59 1
    63   29   60 1
    64   31   61 1
@<TRIPOS>MOLECULE
ZINC52627219
   64    67     0     0     0
SMALL
USER_CHARGES

@<TRIPOS>ATOM
      1 C1         -0.0666    0.7678    2.4044 C.3       1 <0>        -0.1574
      2 C2         -0.0897   -0.7441    2.1711 C.3       1 <0>        -0.1260
      3 C3         -1.5282   -1.1988    1.9163 C.3       1 <0>        -0.1180
      4 C4         -1.5514   -2.7108    1.6830 C.3       1 <0>        -0.1502
      5 C5         -2.9899   -3.1655    1.4282 C.3       1 <0>         0.0820
      6 H1         -3.4115   -2.5919    0.6028 H         1 <0>         0.1226
      7 C6         -2.9989   -4.6535    1.0722 C.3       1 <0>        -0.0466
      8 N1         -4.3629   -5.0623    0.7112 N.4       1 <0>        -0.3816
      9 C7         -4.7757   -4.3598   -0.5097 C.3       1 <0>        -0.0126
     10 C8         -6.2246   -4.7203   -0.8449 C.3       1 <0>        -0.1335
     11 C9         -6.3313   -6.2323   -1.0632 C.3       1 <0>        -0.0256
     12 C10        -5.8282   -6.9557    0.1892 C.3       1 <0>        -0.1406
     13 C11        -4.3940   -6.5125    0.4861 C.3       1 <0>        -0.0040
     14 C12        -7.7694   -6.6046   -1.3167 C.2       1 <0>         0.1237
     15 N2         -8.7872   -5.8148   -1.2683 N.2       1 <0>        -0.4464
     16 C13        -9.9650   -6.4281   -1.5426 C.2       1 <0>         0.0955
     17 C14        -9.7909   -7.7506   -1.8077 C.2       1 <0>        -0.1095
     18 C15        -8.2954   -7.9777   -1.6838 C.3       1 <0>        -0.1204
     19 C16       -10.8228   -8.7403   -2.1459 C.ar      1 <0>         0.0093
     20 C17       -11.1119   -9.8068   -1.2801 C.ar      1 <0>        -0.1616
     21 C18       -12.0882  -10.7109   -1.6383 C.ar      1 <0>         0.1067
     22 N3        -12.7459  -10.5843   -2.7758 N.ar      1 <0>        -0.4772
     23 C19       -12.5068   -9.5976   -3.6194 C.ar      1 <0>         0.1092
     24 C20       -11.5521   -8.6435   -3.3414 C.ar      1 <0>        -0.1510
     25 C21       -11.2772   -5.7434   -1.5519 C.ar      1 <0>        -0.0500
     26 C22       -12.3706   -6.3167   -0.9015 C.ar      1 <0>        -0.0657
     27 C23       -13.5911   -5.6748   -0.9131 C.ar      1 <0>        -0.1517
     28 C24       -13.7328   -4.4622   -1.5694 C.ar      1 <0>         0.1149
     29 C25       -12.6499   -3.8886   -2.2169 C.ar      1 <0>        -0.1543
     30 C26       -11.4237   -4.5196   -2.2063 C.ar      1 <0>        -0.0594
     31 F1        -14.9307   -3.8375   -1.5782 F         1 <0>        -0.1324
     32 O1         -3.7723   -2.9525    2.6049 O.3       1 <0>        -0.5523
     33 H2          0.9582    1.0918    2.5859 H         1 <0>         0.0589
     34 H3         -0.4582    1.2773    1.5239 H         1 <0>         0.0555
     35 H4         -0.6833    1.0115    3.2695 H         1 <0>         0.0561
     36 H5          0.5269   -0.9878    1.3060 H         1 <0>         0.0624
     37 H6          0.3018   -1.2536    3.0515 H         1 <0>         0.0627
     38 H7         -2.1449   -0.9552    2.7814 H         1 <0>         0.0735
     39 H8         -1.9198   -0.6893    1.0359 H         1 <0>         0.0655
     40 H9         -0.9347   -2.9544    0.8179 H         1 <0>         0.0829
     41 H10        -1.1598   -3.2203    2.5634 H         1 <0>         0.0786
     42 H11        -2.3316   -4.8292    0.2284 H         1 <0>         0.1400
     43 H12        -2.6605   -5.2344    1.9302 H         1 <0>         0.1347
     44 H13        -4.6962   -3.2840   -0.3538 H         1 <0>         0.1343
     45 H14        -4.1280   -4.6554   -1.3350 H         1 <0>         0.1308
     46 H15        -6.8733   -4.4249   -0.0202 H         1 <0>         0.0992
     47 H16        -6.5286   -4.1991   -1.7527 H         1 <0>         0.1185
     48 H17        -5.7224   -6.5207   -1.9201 H         1 <0>         0.1136
     49 H18        -6.4686   -6.7068    1.0354 H         1 <0>         0.0944
     50 H19        -5.8488   -8.0324    0.0207 H         1 <0>         0.1185
     51 H20        -3.7544   -6.7621   -0.3604 H         1 <0>         0.1323
     52 H21        -4.0326   -7.0258    1.3772 H         1 <0>         0.1340
     53 H22        -7.8744   -8.3105   -2.6325 H         1 <0>         0.1322
     54 H23        -8.0811   -8.6964   -0.8928 H         1 <0>         0.1287
     55 H24       -10.5774   -9.9171   -0.3481 H         1 <0>         0.1353
     56 H25       -12.3182  -11.5349   -0.9792 H         1 <0>         0.1611
     57 H26       -13.0703   -9.5347   -4.5386 H         1 <0>         0.1614
     58 H27       -11.3651   -7.8364   -4.0342 H         1 <0>         0.1351
     59 H28       -12.2614   -7.2617   -0.3902 H         1 <0>         0.1292
     60 H29       -14.4381   -6.1178   -0.4104 H         1 <0>         0.1412
     61 H30       -12.7655   -2.9436   -2.7268 H         1 <0>         0.1417
     62 H31       -10.5794   -4.0696   -2.7073 H         1 <0>         0.1342
     63 H32        -3.4542   -3.4336    3.3811 H         1 <0>         0.3889
     64 H33        -4.9937   -4.8260    1.4624 H         1 <0>         0.4281
@<TRIPOS>BOND
     1    1    2 1
     2    1   33 1
     3    1   34 1
     4    1   35 1
     5    2    3 1
     6    2   36 1
     7    2   37 1
     8    3    4 1
     9    3   38 1
    10    3   39 1
    11    4    5 1
    12    4   40 1
    13    4   41 1
    14    5    6 1
    15    5    7 1
    16    5   32 1
    17    7    8 1
    18    7   42 1
    19    7   43 1
    20    8   13 1
    21    8    9 1
    22    8   64 1
    23    9   10 1
    24    9   44 1
    25    9   45 1
    26   10   11 1
    27   10   46 1
    28   10   47 1
    29   11   12 1
    30   11   14 1
    31   11   48 1
    32   12   13 1
    33   12   49 1
    34   12   50 1
    35   13   51 1
    36   13   52 1
    37   14   18 1
    38   14   15 2
    39   15   16 1
    40   16   17 2
    41   16   25 1
    42   17   18 1
    43   17   19 1
    44   18   53 1
    45   18   54 1
    46   19   24 ar
    47   19   20 ar
    48   20   21 ar
    49   20   55 1
    50   21   22 ar
    51   21   56 1
    52   22   23 ar
    53   23   24 ar
    54   23   57 1
    55   24   58 1
    56   25   30 ar
    57   25   26 ar
    58   26   27 ar
    59   26   59 1
    60   27   28 ar
    61   27   60 1
    62   28   29 ar
    63   28   31 1
    64   29   30 ar
    65   29   61 1
    66   30   62 1
    67   32   63 1
@<TRIPOS>MOLECULE
ZINC07726790
   52    55     0     0     0
SMALL
USER_CHARGES
1-[2-(3,4-dimethoxyphenyl)thiazol-4-yl]-N,N-bis(2-furylmethyl)methanamine
@<TRIPOS>ATOM
      1 C1         -5.4953   -3.1523   -0.6126 C.3       1 <0>         0.0206
      2 O1         -4.1762   -3.6914   -0.5052 O.3       1 <0>        -0.2961
      3 C2         -3.1522   -2.8026   -0.4085 C.ar      1 <0>         0.1419
      4 C3         -3.4147   -1.4406   -0.4171 C.ar      1 <0>        -0.1803
      5 C4         -2.3790   -0.5349   -0.3202 C.ar      1 <0>        -0.0510
      6 C5         -1.0632   -0.9881   -0.2132 C.ar      1 <0>        -0.0448
      7 C6         -0.7982   -2.3586   -0.2099 C.ar      1 <0>        -0.1428
      8 C7         -1.8414   -3.2615   -0.3016 C.ar      1 <0>         0.1064
      9 O2         -1.5871   -4.5975   -0.2939 O.3       1 <0>        -0.2974
     10 C8         -0.2196   -4.9969   -0.1814 C.3       1 <0>         0.0213
     11 C9          0.0479   -0.0187   -0.1096 C.2       1 <0>         0.1953
     12 N1          0.0103    1.3065   -0.0999 N.2       1 <0>        -0.5112
     13 C10         1.1088    2.0185   -0.0007 C.2       1 <0>        -0.0023
     14 C11         2.3131    1.3961    0.0945 C.2       1 <0>        -0.1807
     15 S1          1.8048   -0.3176    0.0351 S.3       1 <0>         0.0830
     16 C12         1.0343    3.5236    0.0082 C.3       1 <0>         0.0774
     17 C13        -0.3053    3.8188   -1.9870 C.3       1 <0>         0.0923
     18 C14        -0.2230    4.1093   -3.4634 C.2       1 <0>        -0.1095
     19 C15         0.0691    3.2161   -4.4258 C.2       1 <0>        -0.1369
     20 C16         0.0373    3.9134   -5.6553 C.2       1 <0>        -0.2178
     21 C17        -0.2724    5.1911   -5.3707 C.2       1 <0>         0.0140
     22 O3         -0.4347    5.3026   -4.0421 O.3       1 <0>        -0.1696
     23 C18         1.4099    5.4346   -1.4304 C.3       1 <0>         0.0899
     24 C19         2.9019    5.5462   -1.2502 C.2       1 <0>        -0.1072
     25 C20         3.8229    5.4262   -2.2232 C.2       1 <0>        -0.1397
     26 C21         5.0870    5.6002   -1.6143 C.2       1 <0>        -0.2179
     27 C22         4.8628    5.8162   -0.3057 C.2       1 <0>         0.0141
     28 O4          3.5372    5.7882   -0.0919 O.3       1 <0>        -0.1669
     29 H1         -5.5620   -2.5303   -1.5052 H         1 <0>         0.0608
     30 H2         -6.2161   -3.9669   -0.6825 H         1 <0>         0.1092
     31 H3         -5.7137   -2.5484    0.2682 H         1 <0>         0.0614
     32 H4         -4.4324   -1.0886   -0.5002 H         1 <0>         0.1493
     33 H5         -2.5861    0.5250   -0.3274 H         1 <0>         0.1406
     34 H6          0.2190   -2.7129   -0.1317 H         1 <0>         0.1407
     35 H7          0.3463   -4.5959   -1.0222 H         1 <0>         0.0571
     36 H8          0.1951   -4.6145    0.7512 H         1 <0>         0.0578
     37 H9         -0.1573   -6.0851   -0.1875 H         1 <0>         0.1096
     38 H10         3.3030    1.8192    0.1816 H         1 <0>         0.2073
     39 H11         0.1260    3.8395    0.5213 H         1 <0>         0.1499
     40 H12         1.9038    3.9274    0.5270 H         1 <0>         0.1448
     41 H13        -0.6214    2.7865   -1.8368 H         1 <0>         0.1625
     42 H14        -1.0279    4.4910   -1.5242 H         1 <0>         0.1490
     43 H15         0.2869    2.1675   -4.2861 H         1 <0>         0.1580
     44 H16         0.2258    3.4998   -6.6349 H         1 <0>         0.1632
     45 H17        -0.3779    5.9905   -6.0891 H         1 <0>         0.2187
     46 H18         1.1284    5.8523   -2.3971 H         1 <0>         0.1544
     47 H19         0.9058    5.9851   -0.6361 H         1 <0>         0.1500
     48 H20         3.6333    5.2332   -3.2687 H         1 <0>         0.1587
     49 H21         6.0482    5.5659   -2.1055 H         1 <0>         0.1634
     50 H22         5.6201    5.9883    0.4449 H         1 <0>         0.2188
     51 N2          1.0333    4.0059   -1.3890 N.4       1 <0>        -0.3962
     52 H23         1.7185    3.4647   -1.9291 H         1 <0>         0.4271
@<TRIPOS>BOND
     1    1    2 1
     2    1   29 1
     3    1   30 1
     4    1   31 1
     5    2    3 1
     6    3    8 ar
     7    3    4 ar
     8    4    5 ar
     9    4   32 1
    10    5    6 ar
    11    5   33 1
    12    6    7 ar
    13    6   11 1
    14    7    8 ar
    15    7   34 1
    16    8    9 1
    17    9   10 1
    18   10   35 1
    19   10   36 1
    20   10   37 1
    21   11   15 1
    22   11   12 2
    23   12   13 1
    24   13   14 2
    25   13   16 1
    26   14   15 1
    27   14   38 1
    28   16   39 1
    29   16   40 1
    30   16   51 1
    31   17   18 1
    32   17   41 1
    33   17   42 1
    34   17   51 1
    35   18   22 1
    36   18   19 2
    37   19   20 1
    38   19   43 1
    39   20   21 2
    40   20   44 1
    41   21   22 1
    42   21   45 1
    43   23   24 1
    44   23   46 1
    45   23   47 1
    46   23   51 1
    47   24   28 1
    48   24   25 2
    49   25   26 1
    50   25   48 1
    51   26   27 2
    52   26   49 1
    53   27   28 1
    54   27   50 1
    55   51   52 1
@<TRIPOS>MOLECULE
ZINC12411648
   60    63     0     0     0
SMALL
USER_CHARGES
2-diethylaminoethyl-(methoxymethyl)-methyl-phenyl-BLAHone
@<TRIPOS>ATOM
      1 C1         -6.0843   -1.0462    1.3409 C.3       1 <0>        -0.1881
      2 C2         -4.9841   -0.0481    1.7075 C.3       1 <0>        -0.0112
      3 C3         -5.2566    1.3623   -0.2416 C.3       1 <0>        -0.0163
      4 C4         -5.4961    2.6201    0.5960 C.3       1 <0>        -0.1887
      5 C5         -3.0752    1.1176    0.7802 C.3       1 <0>        -0.0291
      6 C6         -2.2694    1.2777   -0.5105 C.3       1 <0>         0.0608
      7 N1         -0.9403    1.8062   -0.1940 N.am      1 <0>        -0.5224
      8 C7          0.1027    0.9657    0.0037 C.2       1 <0>         0.5844
      9 O1         -0.0422   -0.2425   -0.0773 O.2       1 <0>        -0.5083
     10 C8          1.3547    1.5225    0.2982 C.2       1 <0>        -0.3067
     11 C9          1.5305    2.9024    0.3924 C.2       1 <0>         0.1960
     12 C10         2.8957    3.3591    0.7081 C.ar      1 <0>        -0.1548
     13 C11         3.3470    4.6911    0.8608 C.ar      1 <0>         0.0319
     14 C12         4.6718    4.9157    1.1588 C.ar      1 <0>        -0.1599
     15 C13         5.5463    3.8502    1.3055 C.ar      1 <0>         0.1972
     16 N2          5.1187    2.6108    1.1622 N.ar      1 <0>        -0.4510
     17 C14         3.8604    2.3485    0.8772 C.ar      1 <0>         0.1192
     18 S1          2.9587    0.8401    0.6198 S.3       1 <0>         0.2289
     19 C15         6.9946    4.1097    1.6314 C.3       1 <0>        -0.1124
     20 C16         2.3924    5.8459    0.6993 C.3       1 <0>         0.1042
     21 O2          3.0928    7.0748    0.9022 O.3       1 <0>        -0.3892
     22 C17         2.2743    8.2388    0.7707 C.3       1 <0>         0.0335
     23 N3          0.4288    3.6732    0.1833 N.2       1 <0>        -0.4791
     24 C18        -0.7375    3.1542   -0.0921 C.2       1 <0>         0.4336
     25 C19        -1.8845    4.0616   -0.3055 C.ar      1 <0>        -0.0755
     26 C20        -2.6454    3.9674   -1.4720 C.ar      1 <0>        -0.1060
     27 C21        -3.7185    4.8133   -1.6621 C.ar      1 <0>        -0.1150
     28 C22        -4.0336    5.7618   -0.7053 C.ar      1 <0>        -0.0871
     29 C23        -3.2801    5.8643    0.4506 C.ar      1 <0>        -0.1125
     30 C24        -2.2082    5.0205    0.6560 C.ar      1 <0>        -0.0653
     31 H1         -6.7926   -0.5726    0.6611 H         1 <0>         0.0804
     32 H2         -5.6396   -1.9147    0.8551 H         1 <0>         0.0826
     33 H3         -6.6042   -1.3622    2.2452 H         1 <0>         0.1078
     34 H4         -4.2345   -0.5439    2.3242 H         1 <0>         0.1301
     35 H5         -5.4184    0.7838    2.2621 H         1 <0>         0.1340
     36 H6         -4.8065    1.6407   -1.1945 H         1 <0>         0.1272
     37 H7         -6.2068    0.8594   -0.4218 H         1 <0>         0.1360
     38 H8         -6.2480    3.2422    0.1106 H         1 <0>         0.1094
     39 H9         -5.8460    2.3347    1.5881 H         1 <0>         0.0818
     40 H10        -4.5648    3.1793    0.6862 H         1 <0>         0.0798
     41 H11        -2.5102    0.5117    1.4885 H         1 <0>         0.1371
     42 H12        -3.2662    2.0994    1.2134 H         1 <0>         0.1412
     43 H13        -2.7855    1.9679   -1.1778 H         1 <0>         0.1264
     44 H14        -2.1682    0.3081   -0.9982 H         1 <0>         0.1255
     45 H15         5.0318    5.9268    1.2785 H         1 <0>         0.1619
     46 H16         7.1254    4.1312    2.7133 H         1 <0>         0.0933
     47 H17         7.6103    3.3168    1.2066 H         1 <0>         0.0882
     48 H18         7.2957    5.0687    1.2098 H         1 <0>         0.0892
     49 H19         1.9698    5.8301   -0.3053 H         1 <0>         0.0790
     50 H20         1.5903    5.7595    1.4323 H         1 <0>         0.0776
     51 H21         1.8493    8.2727   -0.2324 H         1 <0>         0.0447
     52 H22         1.4698    8.2021    1.5052 H         1 <0>         0.0440
     53 H23         2.8796    9.1295    0.9391 H         1 <0>         0.0935
     54 H24        -2.3975    3.2307   -2.2218 H         1 <0>         0.1316
     55 H25        -4.3109    4.7382   -2.5619 H         1 <0>         0.1375
     56 H26        -4.8717    6.4248   -0.8612 H         1 <0>         0.1359
     57 H27        -3.5313    6.6068    1.1935 H         1 <0>         0.1382
     58 H28        -1.6210    5.1014    1.5589 H         1 <0>         0.1350
     59 N4         -4.3474    0.4349    0.4641 N.4       1 <0>        -0.3912
     60 H29        -4.1524   -0.3686   -0.1447 H         1 <0>         0.4315
@<TRIPOS>BOND
     1    1    2 1
     2    1   31 1
     3    1   32 1
     4    1   33 1
     5    2   34 1
     6    2   35 1
     7    2   59 1
     8    3    4 1
     9    3   36 1
    10    3   37 1
    11    3   59 1
    12    4   38 1
    13    4   39 1
    14    4   40 1
    15    5    6 1
    16    5   41 1
    17    5   42 1
    18    5   59 1
    19    6    7 1
    20    6   43 1
    21    6   44 1
    22    7   24 1
    23    7    8 am
    24    8    9 2
    25    8   10 1
    26   10   18 1
    27   10   11 2
    28   11   12 1
    29   11   23 1
    30   12   17 ar
    31   12   13 ar
    32   13   14 ar
    33   13   20 1
    34   14   15 ar
    35   14   45 1
    36   15   16 ar
    37   15   19 1
    38   16   17 ar
    39   17   18 1
    40   19   46 1
    41   19   47 1
    42   19   48 1
    43   20   21 1
    44   20   49 1
    45   20   50 1
    46   21   22 1
    47   22   51 1
    48   22   52 1
    49   22   53 1
    50   23   24 2
    51   24   25 1
    52   25   30 ar
    53   25   26 ar
    54   26   27 ar
    55   26   54 1
    56   27   28 ar
    57   27   55 1
    58   28   29 ar
    59   28   56 1
    60   29   30 ar
    61   29   57 1
    62   30   58 1
    63   59   60 1
@<TRIPOS>MOLECULE
ZINC14748624
   68    71     0     0     0
SMALL
USER_CHARGES
4-ethyl-8-[(E)-2-methyl-3-phenyl-prop-2-enyl]-2-[3-(3-pyridyl)propyl]-2,4,8-triazaspiro[4.5]decane-1,3-dione
@<TRIPOS>ATOM
      1 C1         -5.7716    3.6624   -5.6297 C.3       1 <0>        -0.1859
      2 C2         -6.0779    5.1262   -5.3067 C.3       1 <0>         0.1294
      3 N1         -4.9266    5.7281   -4.6297 N.am      1 <0>        -0.6249
      4 C3         -4.4529    5.4129   -3.4088 C.2       1 <0>         0.7017
      5 O1         -4.9408    4.5595   -2.6941 O.2       1 <0>        -0.5113
      6 N2         -3.3839    6.1447   -3.0713 N.am      1 <0>        -0.5707
      7 C4         -3.0542    7.0204   -4.0435 C.2       1 <0>         0.5336
      8 O2         -2.1421    7.8190   -4.0337 O.2       1 <0>        -0.4427
      9 C5         -4.0600    6.7938   -5.1479 C.3       1 <0>         0.1100
     10 C6         -4.8657    8.0644   -5.3995 C.3       1 <0>        -0.1400
     11 C7         -5.8595    7.8170   -6.5380 C.3       1 <0>        -0.0250
     12 C8         -4.4052    6.1508   -7.5322 C.3       1 <0>        -0.0176
     13 C9         -3.3624    6.3422   -6.4271 C.3       1 <0>        -0.1401
     14 C10        -6.0332    7.3096   -8.8988 C.3       1 <0>         0.0466
     15 C11        -6.8549    8.5684   -9.0047 C.2       1 <0>        -0.2093
     16 C12        -6.4423    9.5666   -9.7733 C.2       1 <0>        -0.0231
     17 C13        -7.3337   10.7167  -10.0329 C.ar      1 <0>        -0.0991
     18 C14        -8.7174   10.5385  -10.0607 C.ar      1 <0>        -0.1019
     19 C15        -9.5443   11.6175  -10.2969 C.ar      1 <0>        -0.1237
     20 C16        -9.0037   12.8715  -10.5185 C.ar      1 <0>        -0.0942
     21 C17        -7.6325   13.0537  -10.4984 C.ar      1 <0>        -0.1210
     22 C18        -6.7949   11.9842  -10.2568 C.ar      1 <0>        -0.0927
     23 C19        -8.1456    8.6926   -8.2368 C.3       1 <0>        -0.1353
     24 C20        -2.6649    6.0150   -1.8015 C.3       1 <0>         0.1145
     25 C21        -1.5490    4.9790   -1.9507 C.3       1 <0>        -0.1288
     26 C22        -0.7982    4.8436   -0.6245 C.3       1 <0>        -0.0721
     27 C23         0.3009    3.8231   -0.7714 C.ar      1 <0>        -0.1399
     28 C24         0.0559    2.4842   -0.5063 C.ar      1 <0>        -0.0719
     29 C25         1.0985    1.5817   -0.6495 C.ar      1 <0>        -0.1688
     30 C26         2.3356    2.0414   -1.0603 C.ar      1 <0>         0.0975
     31 N3          2.5309    3.3215   -1.3090 N.ar      1 <0>        -0.4822
     32 C27         1.5640    4.2088   -1.1781 C.ar      1 <0>         0.1020
     33 H1         -6.5905    3.2398   -6.2120 H         1 <0>         0.0825
     34 H2         -4.8480    3.6029   -6.2054 H         1 <0>         0.0613
     35 H3         -5.6583    3.1016   -4.7020 H         1 <0>         0.0819
     36 H4         -6.9508    5.1797   -4.6560 H         1 <0>         0.0954
     37 H5         -6.2799    5.6676   -6.2308 H         1 <0>         0.0835
     38 H6         -5.4094    8.3356   -4.4945 H         1 <0>         0.1234
     39 H7         -4.1907    8.8746   -5.6754 H         1 <0>         0.1162
     40 H8         -6.4154    8.7325   -6.7405 H         1 <0>         0.1494
     41 H9         -6.5531    7.0270   -6.2498 H         1 <0>         0.1433
     42 H10        -3.9061    5.8577   -8.4559 H         1 <0>         0.1435
     43 H11        -5.1091    5.3727   -7.2368 H         1 <0>         0.1415
     44 H12        -2.6410    7.0992   -6.7348 H         1 <0>         0.1167
     45 H13        -2.8458    5.3995   -6.2465 H         1 <0>         0.1233
     46 H14        -5.4479    7.1801   -9.8091 H         1 <0>         0.1360
     47 H15        -6.6952    6.4536   -8.7676 H         1 <0>         0.1381
     48 H16        -5.4549    9.5394  -10.2099 H         1 <0>         0.1295
     49 H17        -9.1404    9.5590   -9.8929 H         1 <0>         0.1353
     50 H18       -10.6156   11.4819  -10.3135 H         1 <0>         0.1300
     51 H19        -9.6551   13.7120  -10.7078 H         1 <0>         0.1298
     52 H20        -7.2167   14.0353  -10.6718 H         1 <0>         0.1305
     53 H21        -5.7247   12.1279  -10.2406 H         1 <0>         0.1266
     54 H22        -8.0647    8.1431   -7.2988 H         1 <0>         0.0638
     55 H23        -8.3435    9.7436   -8.0263 H         1 <0>         0.0883
     56 H24        -8.9623    8.2807   -8.8297 H         1 <0>         0.0838
     57 H25        -3.3572    5.6939   -1.0232 H         1 <0>         0.1045
     58 H26        -2.2327    6.9778   -1.5287 H         1 <0>         0.1027
     59 H27        -0.8568    5.3001   -2.7290 H         1 <0>         0.0706
     60 H28        -1.9812    4.0162   -2.2234 H         1 <0>         0.0728
     61 H29        -1.4904    4.5225    0.1538 H         1 <0>         0.0822
     62 H30        -0.3660    5.8063   -0.3517 H         1 <0>         0.0831
     63 H31        -0.9226    2.1530   -0.1912 H         1 <0>         0.1343
     64 H32         0.9448    0.5320   -0.4470 H         1 <0>         0.1375
     65 H33         3.1518    1.3441   -1.1787 H         1 <0>         0.1579
     66 H34         1.7617    5.2490   -1.3909 H         1 <0>         0.1536
     67 N4         -5.1090    7.4327   -7.7528 N.4       1 <0>        -0.3947
     68 H35        -4.4160    8.1614   -7.9602 H         1 <0>         0.4285
@<TRIPOS>BOND
     1    1    2 1
     2    1   33 1
     3    1   34 1
     4    1   35 1
     5    2    3 1
     6    2   36 1
     7    2   37 1
     8    3    9 1
     9    3    4 am
    10    4    5 2
    11    4    6 am
    12    6    7 am
    13    6   24 1
    14    7    8 2
    15    7    9 1
    16    9   13 1
    17    9   10 1
    18   10   11 1
    19   10   38 1
    20   10   39 1
    21   11   40 1
    22   11   41 1
    23   11   67 1
    24   12   13 1
    25   12   42 1
    26   12   43 1
    27   12   67 1
    28   13   44 1
    29   13   45 1
    30   14   15 1
    31   14   46 1
    32   14   47 1
    33   14   67 1
    34   15   16 2
    35   15   23 1
    36   16   17 1
    37   16   48 1
    38   17   22 ar
    39   17   18 ar
    40   18   19 ar
    41   18   49 1
    42   19   20 ar
    43   19   50 1
    44   20   21 ar
    45   20   51 1
    46   21   22 ar
    47   21   52 1
    48   22   53 1
    49   23   54 1
    50   23   55 1
    51   23   56 1
    52   24   25 1
    53   24   57 1
    54   24   58 1
    55   25   26 1
    56   25   59 1
    57   25   60 1
    58   26   27 1
    59   26   61 1
    60   26   62 1
    61   27   32 ar
    62   27   28 ar
    63   28   29 ar
    64   28   63 1
    65   29   30 ar
    66   29   64 1
    67   30   31 ar
    68   30   65 1
    69   31   32 ar
    70   32   66 1
    71   67   68 1
@<TRIPOS>MOLECULE
ZINC34834364
   74    76     0     0     0
SMALL
USER_CHARGES

@<TRIPOS>ATOM
      1 C1          0.1050    1.7159   -0.3305 C.3       1 <0>        -0.0766
      2 C2          0.0998    0.2118   -0.2372 C.2       1 <0>         0.1110
      3 C3          0.3362   -0.6729   -1.2933 C.2       1 <0>        -0.2202
      4 C4          0.2443   -1.9407   -0.8048 C.2       1 <0>         0.3176
      5 N1         -0.0422   -1.8465    0.5224 N.pl3     1 <0>        -0.3373
      6 N2         -0.1213   -0.4863    0.8474 N.2       1 <0>        -0.2667
      7 C5         -0.2218   -2.9189    1.4067 C.ar      1 <0>         0.1538
      8 C6         -1.0682   -3.9659    1.0676 C.ar      1 <0>        -0.1376
      9 C7         -1.2428   -5.0215    1.9410 C.ar      1 <0>        -0.1117
     10 C8         -0.5755   -5.0363    3.1521 C.ar      1 <0>        -0.1114
     11 C9          0.2678   -3.9948    3.4928 C.ar      1 <0>        -0.0936
     12 C10         0.4509   -2.9391    2.6212 C.ar      1 <0>        -0.1035
     13 N3          0.4126   -3.1168   -1.5296 N.pl3     1 <0>        -0.6425
     14 C11         1.6946   -3.8380   -1.5141 C.3       1 <0>         0.1149
     15 C12         1.4197   -5.3107   -1.1922 C.3       1 <0>        -0.0280
     16 N4          0.4362   -5.8432   -2.1436 N.4       1 <0>        -0.3797
     17 C13        -0.8493   -5.1546   -1.9720 C.3       1 <0>        -0.0371
     18 C14        -0.6885   -3.6773   -2.3280 C.3       1 <0>         0.1152
     19 C15         0.2551   -7.2813   -1.9044 C.3       1 <0>        -0.0476
     20 C16         0.6391   -0.2914   -2.7194 C.3       1 <0>         0.1940
     21 N5          2.0708   -0.0128   -2.8568 N.am      1 <0>        -0.6081
     22 C17         3.0121   -1.1117   -3.0865 C.3       1 <0>         0.1129
     23 C18         3.2822   -1.2468   -4.5864 C.3       1 <0>        -0.1202
     24 C19         4.3471   -2.3206   -4.8182 C.3       1 <0>        -0.1457
     25 C20         1.9908   -1.6460   -5.3032 C.3       1 <0>        -0.1432
     26 C21         2.5220    1.2543   -2.7719 C.2       1 <0>         0.5183
     27 O1          1.7428    2.1640   -2.5818 O.2       1 <0>        -0.5141
     28 C22         3.9948    1.5408   -2.9133 C.3       1 <0>        -0.1308
     29 C23         4.2369    3.0455   -2.7782 C.3       1 <0>        -0.0503
     30 C24         3.7549    3.5183   -1.4052 C.3       1 <0>        -0.1538
     31 C25         5.7321    3.3363   -2.9217 C.3       1 <0>        -0.1449
     32 C26         3.4659    3.7864   -3.8724 C.3       1 <0>        -0.1533
     33 H1          1.1118    2.0882   -0.1413 H         1 <0>         0.0826
     34 H2         -0.2132    2.0192   -1.3279 H         1 <0>         0.0933
     35 H3         -0.5800    2.1283    0.4104 H         1 <0>         0.0711
     36 H4         -1.5899   -3.9548    0.1221 H         1 <0>         0.1220
     37 H5         -1.9014   -5.8361    1.6780 H         1 <0>         0.1317
     38 H6         -0.7136   -5.8629    3.8334 H         1 <0>         0.1343
     39 H7          0.7870   -4.0088    4.4397 H         1 <0>         0.1377
     40 H8          1.1134   -2.1283    2.8857 H         1 <0>         0.1337
     41 H9          2.1709   -3.7595   -2.4913 H         1 <0>         0.0924
     42 H10         2.3456   -3.4117   -0.7508 H         1 <0>         0.1160
     43 H11         2.3464   -5.8791   -1.2710 H         1 <0>         0.1420
     44 H12         1.0271   -5.3940   -0.1788 H         1 <0>         0.1311
     45 H13        -1.5946   -5.6081   -2.6255 H         1 <0>         0.1441
     46 H14        -1.1733   -5.2427   -0.9350 H         1 <0>         0.1333
     47 H15        -1.6124   -3.1447   -2.1026 H         1 <0>         0.1195
     48 H16        -0.4570   -3.5822   -3.3889 H         1 <0>         0.0927
     49 H17        -0.1013   -7.4382   -0.8863 H         1 <0>         0.1213
     50 H18        -0.4749   -7.6779   -2.6101 H         1 <0>         0.1264
     51 H19         1.2070   -7.7947   -2.0393 H         1 <0>         0.1261
     52 H20         0.3635   -1.1122   -3.3815 H         1 <0>         0.0787
     53 H21         0.0687    0.5982   -2.9865 H         1 <0>         0.0978
     54 H22         3.9471   -0.9040   -2.5662 H         1 <0>         0.0756
     55 H23         2.5850   -2.0408   -2.7091 H         1 <0>         0.0749
     56 H24         3.6359   -0.2935   -4.9792 H         1 <0>         0.0786
     57 H25         3.9595   -3.2902   -4.5055 H         1 <0>         0.0488
     58 H26         4.6030   -2.3560   -5.8771 H         1 <0>         0.0626
     59 H27         5.2375   -2.0807   -4.2371 H         1 <0>         0.0591
     60 H28         2.1832   -1.7422   -6.3718 H         1 <0>         0.0582
     61 H29         1.6371   -2.5993   -4.9105 H         1 <0>         0.0440
     62 H30         1.2322   -0.8810   -5.1381 H         1 <0>         0.0596
     63 H31         4.5441    1.0129   -2.1338 H         1 <0>         0.0877
     64 H32         4.3382    1.2040   -3.8914 H         1 <0>         0.0911
     65 H33         4.3042    2.9904   -0.6257 H         1 <0>         0.0430
     66 H34         3.9274    4.5902   -1.3089 H         1 <0>         0.0533
     67 H35         2.6897    3.3111   -1.3029 H         1 <0>         0.0832
     68 H36         6.0756    2.9995   -3.8998 H         1 <0>         0.0541
     69 H37         5.9046    4.4083   -2.8254 H         1 <0>         0.0606
     70 H38         6.2815    2.8085   -2.1422 H         1 <0>         0.0532
     71 H39         2.4006    3.5792   -3.7701 H         1 <0>         0.0829
     72 H40         3.6384    4.8584   -3.7761 H         1 <0>         0.0529
     73 H41         3.8093    3.4496   -4.8505 H         1 <0>         0.0443
     74 H42         0.7696   -5.7008   -3.0852 H         1 <0>         0.4248
@<TRIPOS>BOND
     1    1    2 1
     2    1   33 1
     3    1   34 1
     4    1   35 1
     5    2    6 2
     6    2    3 1
     7    3    4 2
     8    3   20 1
     9    4    5 1
    10    4   13 1
    11    5    6 1
    12    5    7 1
    13    7   12 ar
    14    7    8 ar
    15    8    9 ar
    16    8   36 1
    17    9   10 ar
    18    9   37 1
    19   10   11 ar
    20   10   38 1
    21   11   12 ar
    22   11   39 1
    23   12   40 1
    24   13   18 1
    25   13   14 1
    26   14   15 1
    27   14   41 1
    28   14   42 1
    29   15   16 1
    30   15   43 1
    31   15   44 1
    32   16   17 1
    33   16   19 1
    34   16   74 1
    35   17   18 1
    36   17   45 1
    37   17   46 1
    38   18   47 1
    39   18   48 1
    40   19   49 1
    41   19   50 1
    42   19   51 1
    43   20   21 1
    44   20   52 1
    45   20   53 1
    46   21   22 1
    47   21   26 am
    48   22   23 1
    49   22   54 1
    50   22   55 1
    51   23   24 1
    52   23   25 1
    53   23   56 1
    54   24   57 1
    55   24   58 1
    56   24   59 1
    57   25   60 1
    58   25   61 1
    59   25   62 1
    60   26   27 2
    61   26   28 1
    62   28   29 1
    63   28   63 1
    64   28   64 1
    65   29   30 1
    66   29   31 1
    67   29   32 1
    68   30   65 1
    69   30   66 1
    70   30   67 1
    71   31   68 1
    72   31   69 1
    73   31   70 1
    74   32   71 1
    75   32   72 1
    76   32   73 1
@<TRIPOS>MOLECULE
ZINC35921933
   63    67     0     0     0
SMALL
USER_CHARGES

@<TRIPOS>ATOM
      1 C1         -1.2552    1.9217   -1.8038 C.3       1 <0>        -0.1894
      2 C2         -0.8721    0.4713   -1.5028 C.3       1 <0>        -0.0119
      3 N1         -2.0530   -0.2571   -1.0202 N.4       1 <0>        -0.3856
      4 C3         -2.4927    0.3206    0.2564 C.3       1 <0>        -0.0048
      5 C4         -3.8930   -0.2032    0.6069 C.3       1 <0>        -0.0824
      6 C5         -3.8666   -1.7056    0.4692 C.2       1 <0>         0.0756
      7 C6         -2.8765   -2.3705   -0.1847 C.2       1 <0>        -0.2733
      8 C7         -3.1578   -3.7313   -0.1179 C.2       1 <0>         0.0625
      9 N2         -4.2773   -3.8842    0.5490 N.2       1 <0>        -0.1784
     10 N3         -4.7419   -2.6145    0.9274 N.pl3     1 <0>        -0.2829
     11 C8         -5.9101   -2.3443    1.6538 C.ar      1 <0>         0.1237
     12 C9         -6.6479   -1.1996    1.3839 C.ar      1 <0>        -0.1291
     13 C10        -7.7986   -0.9364    2.1010 C.ar      1 <0>        -0.1000
     14 C11        -8.2161   -1.8116    3.0867 C.ar      1 <0>        -0.1049
     15 C12        -7.4834   -2.9526    3.3577 C.ar      1 <0>        -0.0981
     16 C13        -6.3347   -3.2239    2.6405 C.ar      1 <0>        -0.0940
     17 C14        -2.3221   -4.8374   -0.7089 C.3       1 <0>         0.2033
     18 N4         -1.4667   -5.4126    0.3321 N.pl3     1 <0>        -0.9908
     19 C15        -0.0112   -5.2700    0.2457 C.3       1 <0>         0.1489
     20 C16         0.4064   -3.9278    0.8499 C.3       1 <0>        -0.1710
     21 C17         1.0602   -2.9061   -0.0827 C.3       1 <0>        -0.1960
     22 C18         1.9047   -3.6390    0.9616 C.3       1 <0>        -0.1621
     23 S1         -2.1450   -6.2241    1.6063 S.o2      1 <0>         2.6769
     24 O1         -1.1631   -6.2619    2.6328 O.2       1 <0>        -0.9494
     25 O2         -3.4345   -5.6615    1.8060 O.2       1 <0>        -0.9254
     26 C19        -2.3968   -7.8895    1.0888 C.ar      1 <0>        -0.6808
     27 C20        -3.5419   -8.2318    0.3943 C.ar      1 <0>        -0.0216
     28 C21        -3.7395   -9.5383   -0.0117 C.ar      1 <0>        -0.1385
     29 C22        -2.7917  -10.5024    0.2764 C.ar      1 <0>        -0.0589
     30 C23        -1.6461  -10.1599    0.9701 C.ar      1 <0>        -0.1371
     31 C24        -1.4465   -8.8526    1.3724 C.ar      1 <0>        -0.0240
     32 C25        -1.7115   -1.6784   -0.8459 C.3       1 <0>         0.0759
     33 H1         -0.3790    2.4621   -2.1618 H         1 <0>         0.1081
     34 H2         -2.0317    1.9411   -2.5685 H         1 <0>         0.0817
     35 H3         -1.6280    2.3950   -0.8954 H         1 <0>         0.0808
     36 H4         -0.4993   -0.0020   -2.4111 H         1 <0>         0.1342
     37 H5         -0.0956    0.4519   -0.7380 H         1 <0>         0.1301
     38 H6         -1.7925    0.0381    1.0426 H         1 <0>         0.1341
     39 H7         -2.5226    1.4069    0.1717 H         1 <0>         0.1456
     40 H8         -4.1440    0.0698    1.6318 H         1 <0>         0.1297
     41 H9         -4.6277    0.2180   -0.0792 H         1 <0>         0.1136
     42 H10        -6.3221   -0.5154    0.6144 H         1 <0>         0.1267
     43 H11        -8.3728   -0.0458    1.8918 H         1 <0>         0.1378
     44 H12        -9.1161   -1.6035    3.6463 H         1 <0>         0.1361
     45 H13        -7.8118   -3.6342    4.1285 H         1 <0>         0.1391
     46 H14        -5.7650   -4.1173    2.8498 H         1 <0>         0.1462
     47 H15        -2.9758   -5.6116   -1.1108 H         1 <0>         0.0954
     48 H16        -1.7005   -4.4354   -1.5089 H         1 <0>         0.1111
     49 H17         0.4666   -6.0805    0.7961 H         1 <0>         0.0967
     50 H18         0.2964   -5.3095   -0.7992 H         1 <0>         0.0900
     51 H19        -0.2400   -3.5467    1.6405 H         1 <0>         0.1064
     52 H20         1.1928   -3.1902   -1.1266 H         1 <0>         0.1020
     53 H21         0.8439   -1.8525    0.0942 H         1 <0>         0.0864
     54 H22         2.2441   -3.0675    1.8255 H         1 <0>         0.1006
     55 H23         2.5929   -4.4052    0.6047 H         1 <0>         0.1040
     56 H24        -4.2824   -7.4785    0.1692 H         1 <0>         0.1382
     57 H25        -4.6345   -9.8059   -0.5537 H         1 <0>         0.1350
     58 H26        -2.9463  -11.5233   -0.0402 H         1 <0>         0.1347
     59 H27        -0.9057  -10.9133    1.1955 H         1 <0>         0.1363
     60 H28        -0.5498   -8.5842    1.9111 H         1 <0>         0.1396
     61 H29        -1.5192   -2.1317   -1.8184 H         1 <0>         0.1368
     62 H30        -0.8259   -1.7686   -0.2168 H         1 <0>         0.1425
     63 H31        -2.7970   -0.1727   -1.6966 H         1 <0>         0.4241
@<TRIPOS>BOND
     1    1    2 1
     2    1   33 1
     3    1   34 1
     4    1   35 1
     5    2    3 1
     6    2   36 1
     7    2   37 1
     8    3   32 1
     9    3    4 1
    10    3   63 1
    11    4    5 1
    12    4   38 1
    13    4   39 1
    14    5    6 1
    15    5   40 1
    16    5   41 1
    17    6   10 1
    18    6    7 2
    19    7    8 1
    20    7   32 1
    21    8    9 2
    22    8   17 1
    23    9   10 1
    24   10   11 1
    25   11   16 ar
    26   11   12 ar
    27   12   13 ar
    28   12   42 1
    29   13   14 ar
    30   13   43 1
    31   14   15 ar
    32   14   44 1
    33   15   16 ar
    34   15   45 1
    35   16   46 1
    36   17   18 1
    37   17   47 1
    38   17   48 1
    39   18   19 1
    40   18   23 1
    41   19   20 1
    42   19   49 1
    43   19   50 1
    44   20   22 1
    45   20   21 1
    46   20   51 1
    47   21   22 1
    48   21   52 1
    49   21   53 1
    50   22   54 1
    51   22   55 1
    52   23   24 2
    53   23   25 2
    54   23   26 1
    55   26   31 ar
    56   26   27 ar
    57   27   28 ar
    58   27   56 1
    59   28   29 ar
    60   28   57 1
    61   29   30 ar
    62   29   58 1
    63   30   31 ar
    64   30   59 1
    65   31   60 1
    66   32   61 1
    67   32   62 1
@<TRIPOS>MOLECULE
ZINC11819422
   67    68     0     0     0
SMALL
USER_CHARGES
(1S)-N-[(3-isopentyl-2-isopropylsulfonyl-imidazol-4-yl)methyl]-N-methyl-1-(1,3,5-trimethylpyrazol-4-yl)ethanamine
@<TRIPOS>ATOM
      1 C1          2.0451   -3.9971   -3.9037 C.3       1 <0>        -0.1024
      2 C2          3.1676   -3.0681   -4.2886 C.2       1 <0>         0.0798
      3 C3          4.1926   -2.6269   -3.4453 C.2       1 <0>        -0.3107
      4 C4          5.0019   -1.8145   -4.1636 C.2       1 <0>         0.1429
      5 N1          4.5034   -1.7395   -5.4154 N.pl3     1 <0>        -0.3518
      6 N2          3.3495   -2.5320   -5.4681 N.2       1 <0>        -0.2646
      7 C5          5.0692   -0.9662   -6.5235 C.3       1 <0>         0.0878
      8 C6          6.2387   -1.1185   -3.6566 C.3       1 <0>        -0.1107
      9 C7          4.3681   -2.9962   -1.9948 C.3       1 <0>         0.1250
     10 H1          5.0816   -2.3155   -1.5304 H         1 <0>         0.1414
     11 C8          4.8914   -4.4304   -1.8935 C.3       1 <0>        -0.1812
     12 C9          2.4969   -1.5554   -1.4607 C.3       1 <0>        -0.0552
     13 C10         3.2083   -3.2502    0.1154 C.3       1 <0>         0.0727
     14 C11         1.8395   -3.4442    0.7150 C.2       1 <0>        -0.0703
     15 C12         1.1676   -4.6064    0.8226 C.2       1 <0>         0.0313
     16 N3         -0.0103   -4.3516    1.4115 N.2       1 <0>        -0.3873
     17 C13        -0.0914   -3.0767    1.6782 C.2       1 <0>        -0.2878
     18 N4          1.0397   -2.4730    1.2542 N.pl3     1 <0>        -0.3889
     19 C14         1.3547   -1.0460    1.3578 C.3       1 <0>         0.0570
     20 C15         2.1506   -0.7911    2.6394 C.3       1 <0>        -0.1334
     21 C16         2.5921    0.6732    2.6829 C.3       1 <0>        -0.0877
     22 C17         1.3600    1.5745    2.7855 C.3       1 <0>        -0.1556
     23 C18         3.4917    0.8987    3.8997 C.3       1 <0>        -0.1519
     24 S1         -1.4529   -2.2753    2.4582 S.o2      1 <0>         2.5050
     25 O1         -2.0412   -3.2756    3.2783 O.2       1 <0>        -0.8888
     26 O2         -0.9002   -1.0994    3.0337 O.2       1 <0>        -0.9113
     27 C19        -2.5761   -1.8387    1.1023 C.3       1 <0>        -0.5565
     28 C20        -3.8254   -1.1640    1.6721 C.3       1 <0>        -0.1501
     29 C21        -1.8695   -0.8777    0.1441 C.3       1 <0>        -0.1482
     30 H2          1.2008   -3.4140   -3.5360 H         1 <0>         0.0835
     31 H3          1.7360   -4.5741   -4.7753 H         1 <0>         0.1034
     32 H4          2.3865   -4.6751   -3.1216 H         1 <0>         0.0748
     33 H5          5.7784   -1.5849   -7.0735 H         1 <0>         0.0892
     34 H6          4.2685   -0.6498   -7.1920 H         1 <0>         0.1012
     35 H7          5.5819   -0.0886   -6.1297 H         1 <0>         0.0974
     36 H8          7.1058   -1.7610   -3.8099 H         1 <0>         0.0972
     37 H9          6.3784   -0.1840   -4.2001 H         1 <0>         0.0861
     38 H10         6.1266   -0.9071   -2.5932 H         1 <0>         0.0886
     39 H11         5.8505   -4.5043   -2.4059 H         1 <0>         0.1079
     40 H12         5.0184   -4.6975   -0.8444 H         1 <0>         0.0841
     41 H13         4.1779   -5.1111   -2.3579 H         1 <0>         0.0826
     42 H14         3.1513   -0.8205   -0.9919 H         1 <0>         0.1277
     43 H15         2.3936   -1.3257   -2.5212 H         1 <0>         0.1298
     44 H16         1.5166   -1.5248   -0.9852 H         1 <0>         0.1130
     45 H17         3.7257   -2.4487    0.6426 H         1 <0>         0.1430
     46 H18         3.7797   -4.1739    0.2077 H         1 <0>         0.1620
     47 H19         1.5160   -5.5739    0.4926 H         1 <0>         0.1947
     48 H20         0.4293   -0.4706    1.3843 H         1 <0>         0.1257
     49 H21         1.9475   -0.7412    0.4953 H         1 <0>         0.1002
     50 H22         3.0291   -1.4361    2.6559 H         1 <0>         0.0686
     51 H23         1.5245   -1.0077    3.5050 H         1 <0>         0.0956
     52 H24         3.1434    0.9136    1.7738 H         1 <0>         0.0676
     53 H25         1.6745    2.6177    2.8164 H         1 <0>         0.0602
     54 H26         0.7191    1.4138    1.9186 H         1 <0>         0.0522
     55 H27         0.8087    1.3341    3.6945 H         1 <0>         0.0702
     56 H28         4.3695    0.2566    3.8266 H         1 <0>         0.0543
     57 H29         3.8063    1.9419    3.9306 H         1 <0>         0.0636
     58 H30         2.9404    0.6583    4.8087 H         1 <0>         0.0621
     59 H31        -2.8643   -2.7418    0.5642 H         1 <0>         0.1495
     60 H32        -3.5372   -0.2609    2.2101 H         1 <0>         0.0792
     61 H33        -4.5003   -0.9017    0.8573 H         1 <0>         0.0960
     62 H34        -4.3288   -1.8486    2.3547 H         1 <0>         0.0820
     63 H35        -1.0175   -1.3812   -0.3128 H         1 <0>         0.0560
     64 H36        -2.5654   -0.5631   -0.6336 H         1 <0>         0.0948
     65 H37        -1.5222   -0.0043    0.6960 H         1 <0>         0.0810
     66 N5          3.0574   -2.9154   -1.3163 N.4       1 <0>        -0.3985
     67 H38         2.4151   -3.5887   -1.7504 H         1 <0>         0.4253
@<TRIPOS>BOND
     1    1    2 1
     2    1   30 1
     3    1   31 1
     4    1   32 1
     5    2    6 2
     6    2    3 1
     7    3    4 2
     8    3    9 1
     9    4    5 1
    10    4    8 1
    11    5    6 1
    12    5    7 1
    13    7   33 1
    14    7   34 1
    15    7   35 1
    16    8   36 1
    17    8   37 1
    18    8   38 1
    19    9   10 1
    20    9   11 1
    21    9   66 1
    22   11   39 1
    23   11   40 1
    24   11   41 1
    25   12   42 1
    26   12   43 1
    27   12   44 1
    28   12   66 1
    29   13   14 1
    30   13   45 1
    31   13   46 1
    32   13   66 1
    33   14   18 1
    34   14   15 2
    35   15   16 1
    36   15   47 1
    37   16   17 2
    38   17   18 1
    39   17   24 1
    40   18   19 1
    41   19   20 1
    42   19   48 1
    43   19   49 1
    44   20   21 1
    45   20   50 1
    46   20   51 1
    47   21   22 1
    48   21   23 1
    49   21   52 1
    50   22   53 1
    51   22   54 1
    52   22   55 1
    53   23   56 1
    54   23   57 1
    55   23   58 1
    56   24   25 2
    57   24   26 2
    58   24   27 1
    59   27   28 1
    60   27   29 1
    61   27   59 1
    62   28   60 1
    63   28   61 1
    64   28   62 1
    65   29   63 1
    66   29   64 1
    67   29   65 1
    68   66   67 1
@<TRIPOS>MOLECULE
ZINC14538071
   65    68     0     0     0
SMALL
USER_CHARGES
2-[(4-methoxyphenyl)methyl]-4-(3-methoxypropyl)-8-[(3S)-tetrahydrothiophen-3-yl]-2,4,8-triazaspiro[4.5]decane-1,3-dione
@<TRIPOS>ATOM
      1 C1          1.7613   -2.4636    5.7837 C.3       1 <0>         0.0292
      2 O1          1.4574   -1.2405    5.1102 O.3       1 <0>        -0.3860
      3 C2          2.0835   -1.1096    3.8323 C.3       1 <0>         0.0628
      4 C3          1.6898    0.2298    3.2063 C.3       1 <0>        -0.1512
      5 C4          2.4563    0.4256    1.8967 C.3       1 <0>         0.1357
      6 N1          2.1695    1.7572    1.3574 N.am      1 <0>        -0.6250
      7 C5          2.5201    2.9396    1.8987 C.2       1 <0>         0.7032
      8 O2          3.1394    3.0499    2.9387 O.2       1 <0>        -0.5057
      9 N2          2.1096    3.9799    1.1628 N.am      1 <0>        -0.5649
     10 C6          1.4451    3.5768    0.0598 C.2       1 <0>         0.5363
     11 O3          0.9539    4.2779   -0.7986 O.2       1 <0>        -0.4430
     12 C7          1.4431    2.0671    0.1199 C.3       1 <0>         0.1097
     13 C8          0.0143    1.5374    0.1908 C.3       1 <0>        -0.1401
     14 C9          0.0427    0.0065    0.2233 C.3       1 <0>        -0.0202
     15 C10         2.1276   -0.0456   -1.0140 C.3       1 <0>        -0.0301
     16 C11         2.1695    1.4835   -1.0879 C.3       1 <0>        -0.1375
     17 C12         0.6460   -1.9597   -1.0538 C.3       1 <0>         0.0315
     18 H1         -0.4003   -2.2520   -0.9648 H         1 <0>         0.1554
     19 C13         1.1593   -2.4015   -2.4160 C.3       1 <0>        -0.1579
     20 C14         2.3615   -3.3697   -2.3475 C.3       1 <0>        -0.0765
     21 S1          2.1702   -4.0618   -0.6470 S.3       1 <0>        -0.2107
     22 C15         1.4259   -2.5645    0.1350 C.3       1 <0>        -0.1162
     23 C16         2.3512    5.3820    1.5121 C.3       1 <0>         0.1646
     24 C17         1.2124    5.8927    2.3567 C.ar      1 <0>        -0.1706
     25 C18         0.1145    6.4781    1.7538 C.ar      1 <0>        -0.0542
     26 C19        -0.9333    6.9420    2.5255 C.ar      1 <0>        -0.2138
     27 C20        -0.8778    6.8307    3.9073 C.ar      1 <0>         0.1463
     28 C21         0.2275    6.2480    4.5101 C.ar      1 <0>        -0.1551
     29 C22         1.2699    5.7802    3.7336 C.ar      1 <0>        -0.0494
     30 O4         -1.9044    7.2920    4.6690 O.3       1 <0>        -0.3136
     31 C23        -3.0099    7.8800    3.9804 C.3       1 <0>         0.0250
     32 H2          2.8372   -2.5324    5.9442 H         1 <0>         0.0472
     33 H3          1.2483   -2.4860    6.7453 H         1 <0>         0.0936
     34 H4          1.4301   -3.3053    5.1756 H         1 <0>         0.0435
     35 H5          1.7590   -1.9232    3.1836 H         1 <0>         0.0443
     36 H6          3.1661   -1.1503    3.9523 H         1 <0>         0.0584
     37 H7          1.9344    1.0386    3.8948 H         1 <0>         0.1019
     38 H8          0.6186    0.2357    3.0047 H         1 <0>         0.0760
     39 H9          2.1460   -0.3323    1.1773 H         1 <0>         0.0792
     40 H10         3.5259    0.3322    2.0843 H         1 <0>         0.1007
     41 H11        -0.5418    1.8724   -0.6847 H         1 <0>         0.1191
     42 H12        -0.4680    1.9115    1.0938 H         1 <0>         0.1268
     43 H13         0.5733   -0.3283    1.1146 H         1 <0>         0.1395
     44 H14        -0.9780   -0.3755    0.2430 H         1 <0>         0.1473
     45 H15         2.6433   -0.3802   -0.1138 H         1 <0>         0.1437
     46 H16         2.6191   -0.4654   -1.8916 H         1 <0>         0.1446
     47 H17         3.2064    1.8195   -1.0862 H         1 <0>         0.1273
     48 H18         1.6800    1.8170   -2.0029 H         1 <0>         0.1193
     49 H19         0.3469   -2.8930   -2.9512 H         1 <0>         0.1208
     50 H20         1.4597   -1.5172   -2.9781 H         1 <0>         0.0977
     51 H21         2.2773   -4.1528   -3.1011 H         1 <0>         0.1313
     52 H22         3.3042   -2.8316   -2.4478 H         1 <0>         0.1052
     53 H23         2.1988   -1.8803    0.4853 H         1 <0>         0.1059
     54 H24         0.7521   -2.8402    0.9462 H         1 <0>         0.1395
     55 H25         3.2830    5.4615    2.0720 H         1 <0>         0.1109
     56 H26         2.4228    5.9762    0.6011 H         1 <0>         0.1079
     57 H27         0.0741    6.5691    0.6784 H         1 <0>         0.1280
     58 H28        -1.7928    7.3948    2.0538 H         1 <0>         0.1322
     59 H29         0.2731    6.1605    5.5856 H         1 <0>         0.1359
     60 H30         2.1306    5.3265    4.2024 H         1 <0>         0.1356
     61 H31        -3.4517    7.1447    3.3079 H         1 <0>         0.0563
     62 H32        -3.7571    8.2056    4.7041 H         1 <0>         0.1055
     63 H33        -2.6642    8.7381    3.4040 H         1 <0>         0.0593
     64 N3          0.7156   -0.4851   -0.9984 N.4       1 <0>        -0.3960
     65 H34         0.2374   -0.0977   -1.8203 H         1 <0>         0.4336
@<TRIPOS>BOND
     1    1    2 1
     2    1   32 1
     3    1   33 1
     4    1   34 1
     5    2    3 1
     6    3    4 1
     7    3   35 1
     8    3   36 1
     9    4    5 1
    10    4   37 1
    11    4   38 1
    12    5    6 1
    13    5   39 1
    14    5   40 1
    15    6   12 1
    16    6    7 am
    17    7    8 2
    18    7    9 am
    19    9   10 am
    20    9   23 1
    21   10   11 2
    22   10   12 1
    23   12   16 1
    24   12   13 1
    25   13   14 1
    26   13   41 1
    27   13   42 1
    28   14   43 1
    29   14   44 1
    30   14   64 1
    31   15   16 1
    32   15   45 1
    33   15   46 1
    34   15   64 1
    35   16   47 1
    36   16   48 1
    37   17   18 1
    38   17   22 1
    39   17   19 1
    40   17   64 1
    41   19   20 1
    42   19   49 1
    43   19   50 1
    44   20   21 1
    45   20   51 1
    46   20   52 1
    47   21   22 1
    48   22   53 1
    49   22   54 1
    50   23   24 1
    51   23   55 1
    52   23   56 1
    53   24   29 ar
    54   24   25 ar
    55   25   26 ar
    56   25   57 1
    57   26   27 ar
    58   26   58 1
    59   27   28 ar
    60   27   30 1
    61   28   29 ar
    62   28   59 1
    63   29   60 1
    64   30   31 1
    65   31   61 1
    66   31   62 1
    67   31   63 1
    68   64   65 1
@<TRIPOS>MOLECULE
ZINC20212494
   69    71     0     0     0
SMALL
USER_CHARGES
(3S)-N-[2-(3,4-dimethoxyphenyl)ethyl]-N-methyl-1-[(5-methyl-1-propyl-pyrazol-4-yl)methyl]piperidin-3-amine
@<TRIPOS>ATOM
      1 C1         -5.0127    6.1349   -0.0729 C.3       1 <0>        -0.1544
      2 C2         -3.9378    5.8592    0.9805 C.3       1 <0>        -0.1373
      3 C3         -4.2485    4.5415    1.6933 C.3       1 <0>         0.1254
      4 N1         -3.2193    4.2775    2.7020 N.pl3     1 <0>        -0.3642
      5 C4         -3.2507    4.6751    3.9911 C.2       1 <0>         0.1149
      6 C5         -2.1191    4.2327    4.5868 C.2       1 <0>        -0.2512
      7 C6         -1.3705    3.5412    3.6289 C.2       1 <0>         0.0537
      8 N2         -2.0317    3.5626    2.5000 N.2       1 <0>        -0.2893
      9 C7         -1.7335    4.4473    6.0278 C.3       1 <0>         0.1405
     10 N3         -1.2889    5.8349    6.2143 N.3       1 <0>        -0.5241
     11 C8          0.0174    6.0585    5.5818 C.3       1 <0>         0.0469
     12 C9          0.3806    7.5426    5.6690 C.3       1 <0>        -0.1147
     13 C10         0.4255    7.9664    7.1397 C.3       1 <0>        -0.1419
     14 C11        -0.9318    7.6784    7.7874 C.3       1 <0>         0.0369
     15 H1         -1.7196    8.2953    7.3305 H         1 <0>         0.1416
     16 C12        -1.2569    6.1903    7.6387 C.3       1 <0>         0.0341
     17 N4         -0.8791    8.0289    9.2130 N.4       1 <0>        -0.3995
     18 C13         0.2451    7.3576    9.8790 C.3       1 <0>        -0.0615
     19 C14        -0.8055    9.4847    9.3948 C.3       1 <0>        -0.0039
     20 C15        -1.0029    9.8246   10.8735 C.3       1 <0>        -0.0940
     21 C16        -0.9274   11.3181   11.0600 C.ar      1 <0>        -0.1072
     22 C17         0.2885   11.9191   11.3276 C.ar      1 <0>        -0.1032
     23 C18         0.3639   13.2895   11.4939 C.ar      1 <0>        -0.1720
     24 C19        -0.7825   14.0624   11.4037 C.ar      1 <0>         0.1171
     25 C20        -2.0073   13.4568   11.1400 C.ar      1 <0>         0.1058
     26 C21        -2.0750   12.0834   10.9688 C.ar      1 <0>        -0.1655
     27 O1         -3.1353   14.2112   11.0501 O.3       1 <0>        -0.3008
     28 C22        -4.3567   13.5218   10.7766 C.3       1 <0>         0.0219
     29 O2         -0.7110   15.4099   11.5730 O.3       1 <0>        -0.3013
     30 C23         0.5793   15.9625   11.8409 C.3       1 <0>         0.0194
     31 C24        -4.3490    5.4698    4.6494 C.3       1 <0>        -0.0923
     32 H2         -4.7894    7.0822   -0.5854 H         1 <0>         0.0652
     33 H3         -5.9956    6.2053    0.4159 H         1 <0>         0.0596
     34 H4         -5.0259    5.3154   -0.8065 H         1 <0>         0.0622
     35 H5         -2.9549    5.7888    0.4917 H         1 <0>         0.0727
     36 H6         -3.9246    6.6787    1.7141 H         1 <0>         0.0656
     37 H7         -5.2314    4.6119    2.1820 H         1 <0>         0.0946
     38 H8         -4.2617    3.7220    0.9597 H         1 <0>         0.0993
     39 H9         -0.4141    3.0674    3.7937 H         1 <0>         0.1785
     40 H10        -2.6024    4.2508    6.6730 H         1 <0>         0.0825
     41 H11        -0.9161    3.7613    6.2947 H         1 <0>         0.0511
     42 H12         0.7829    5.4631    6.1010 H         1 <0>         0.0419
     43 H13        -0.0297    5.7545    4.5257 H         1 <0>         0.0942
     44 H14         1.3658    7.7067    5.2080 H         1 <0>         0.0882
     45 H15        -0.3767    8.1373    5.1371 H         1 <0>         0.0820
     46 H16         1.2112    7.3997    7.6607 H         1 <0>         0.0857
     47 H17         0.6451    9.0423    7.2047 H         1 <0>         0.0868
     48 H18        -2.2382    5.9829    8.0905 H         1 <0>         0.0961
     49 H19        -0.4854    5.5942    8.1481 H         1 <0>         0.0562
     50 H20         0.2609    7.6370   10.9428 H         1 <0>         0.1267
     51 H21         1.1888    7.6654    9.4050 H         1 <0>         0.1226
     52 H22         0.1274    6.2677    9.7879 H         1 <0>         0.1243
     53 H23         0.1792    9.8462    9.0637 H         1 <0>         0.1292
     54 H24        -1.5932    9.9689    8.7989 H         1 <0>         0.1314
     55 H25        -1.9876    9.4630   11.2045 H         1 <0>         0.0945
     56 H26        -0.2152    9.3404   11.4694 H         1 <0>         0.0959
     57 H27         1.1821   11.3173   11.4029 H         1 <0>         0.1281
     58 H28         1.3157   13.7570   11.6989 H         1 <0>         0.1415
     59 H29        -3.0243   11.6110   10.7636 H         1 <0>         0.1369
     60 H30        -5.1838   14.2455   10.7306 H         1 <0>         0.1084
     61 H31        -4.5524   12.7916   11.5756 H         1 <0>         0.0573
     62 H32        -4.2741   12.9977    9.8130 H         1 <0>         0.0549
     63 H33         0.4944   17.0532   11.9555 H         1 <0>         0.1094
     64 H34         1.2570   15.7332   11.0054 H         1 <0>         0.0590
     65 H35         0.9796   15.5264   12.7681 H         1 <0>         0.0599
     66 H36        -4.0943    5.6422    5.7055 H         1 <0>         0.0854
     67 H37        -5.2942    4.9107    4.5867 H         1 <0>         0.0742
     68 H38        -4.4601    6.4365    4.1364 H         1 <0>         0.0761
     69 H39        -1.8094    7.6763    9.6824 H         1 <0>         0.4418
@<TRIPOS>BOND
     1    1    2 1
     2    1   32 1
     3    1   33 1
     4    1   34 1
     5    2    3 1
     6    2   35 1
     7    2   36 1
     8    3    4 1
     9    3   37 1
    10    3   38 1
    11    4    8 1
    12    4    5 1
    13    5    6 2
    14    5   31 1
    15    6    7 1
    16    6    9 1
    17    7    8 2
    18    7   39 1
    19    9   10 1
    20    9   40 1
    21    9   41 1
    22   10   16 1
    23   10   11 1
    24   11   12 1
    25   11   42 1
    26   11   43 1
    27   12   13 1
    28   12   44 1
    29   12   45 1
    30   13   14 1
    31   13   46 1
    32   13   47 1
    33   14   15 1
    34   14   16 1
    35   14   17 1
    36   16   48 1
    37   16   49 1
    38   17   18 1
    39   17   19 1
    40   17   69 1
    41   18   50 1
    42   18   51 1
    43   18   52 1
    44   19   20 1
    45   19   53 1
    46   19   54 1
    47   20   21 1
    48   20   55 1
    49   20   56 1
    50   21   26 ar
    51   21   22 ar
    52   22   23 ar
    53   22   57 1
    54   23   24 ar
    55   23   58 1
    56   24   25 ar
    57   24   29 1
    58   25   26 ar
    59   25   27 1
    60   26   59 1
    61   27   28 1
    62   28   60 1
    63   28   61 1
    64   28   62 1
    65   29   30 1
    66   30   63 1
    67   30   64 1
    68   30   65 1
    69   31   66 1
    70   31   67 1
    71   31   68 1
@<TRIPOS>MOLECULE
ZINC35486796
   62    65     0     0     0
SMALL
USER_CHARGES

@<TRIPOS>ATOM
      1 C1         -0.0187    1.5258    0.0104 C.3       1 <0>        -0.1547
      2 C2          0.0021   -0.0041    0.0020 C.3       1 <0>         0.0517
      3 O1          0.6709   -0.4649   -1.1737 O.3       1 <0>        -0.2976
      4 C3          0.7768   -1.8109   -1.3363 C.ar      1 <0>         0.1186
      5 C4          0.2435   -2.6690   -0.3879 C.ar      1 <0>        -0.1438
      6 C5          0.3516   -4.0370   -0.5549 C.ar      1 <0>        -0.1077
      7 C6          0.9916   -4.5523   -1.6668 C.ar      1 <0>        -0.1195
      8 C7          1.5263   -3.7019   -2.6164 C.ar      1 <0>        -0.1795
      9 C8          1.4160   -2.3297   -2.4582 C.ar      1 <0>         0.1194
     10 O2          1.9361   -1.4917   -3.3945 O.3       1 <0>        -0.2929
     11 C9          2.5780   -2.0947   -4.5199 C.3       1 <0>         0.0889
     12 C10         3.0884   -1.0186   -5.4433 C.2       1 <0>        -0.1699
     13 C11         4.2948   -1.1053   -5.9464 C.2       1 <0>        -0.1564
     14 C12        -0.2290   -4.9686    0.4775 C.3       1 <0>         0.2356
     15 H1         -0.9688   -4.4445    1.0827 H         1 <0>         0.1305
     16 C13         0.8555   -5.5138    1.3475 C.2       1 <0>        -0.2403
     17 C14         1.8135   -4.8430    2.2323 C.2       1 <0>         0.4571
     18 O3          1.7401   -3.6618    2.5221 O.2       1 <0>        -0.4209
     19 C15         2.8812   -5.7402    2.7419 C.ar      1 <0>        -0.1844
     20 C16         3.9754   -5.2152    3.4292 C.ar      1 <0>        -0.0686
     21 C17         4.9603   -6.0628    3.8909 C.ar      1 <0>         0.0896
     22 C18         4.8598   -7.4316    3.6700 C.ar      1 <0>        -0.0842
     23 C19         3.7835   -7.9592    2.9940 C.ar      1 <0>        -0.0996
     24 C20         2.7730   -7.1227    2.5199 C.ar      1 <0>         0.1269
     25 O4          1.7213   -7.6696    1.8676 O.3       1 <0>        -0.1751
     26 C21         0.8595   -6.8725    1.2062 C.2       1 <0>         0.0903
     27 C22        -0.2004   -7.2409    0.2514 C.2       1 <0>         0.5786
     28 O5         -0.4589   -8.3755   -0.0977 O.2       1 <0>        -0.4711
     29 N1         -0.8435   -6.1343   -0.1787 N.am      1 <0>        -0.5983
     30 C23        -1.9570   -6.0987   -1.1302 C.3       1 <0>         0.1227
     31 C24        -1.4085   -5.9657   -2.5523 C.3       1 <0>        -0.0522
     32 N2         -2.5249   -5.9300   -3.5063 N.4       1 <0>        -0.3821
     33 C25        -2.0061   -5.6825   -4.8582 C.3       1 <0>        -0.0470
     34 C26        -3.2318   -7.2175   -3.4813 C.3       1 <0>        -0.0560
     35 F1          6.0235   -5.5627    4.5578 F         1 <0>        -0.1219
     36 H2          1.0039    1.9031    0.0027 H         1 <0>         0.0700
     37 H3         -0.5459    1.8868   -0.8726 H         1 <0>         0.0677
     38 H4         -0.5289    1.8773    0.9072 H         1 <0>         0.0832
     39 H5          0.5293   -0.3651    0.8851 H         1 <0>         0.0684
     40 H6         -1.0205   -0.3814    0.0098 H         1 <0>         0.0623
     41 H7         -0.2563   -2.2690    0.4819 H         1 <0>         0.1454
     42 H8          1.0743   -5.6217   -1.7935 H         1 <0>         0.1218
     43 H9          2.0261   -4.1070   -3.4839 H         1 <0>         0.1405
     44 H10         3.4131   -2.7058   -4.1775 H         1 <0>         0.0692
     45 H11         1.8634   -2.7219   -5.0528 H         1 <0>         0.0688
     46 H12         2.4595   -0.1761   -5.6902 H         1 <0>         0.1226
     47 H13         4.9237   -1.9478   -5.6994 H         1 <0>         0.1007
     48 H14         4.6606   -0.3341   -6.6081 H         1 <0>         0.1131
     49 H15         4.0510   -4.1512    3.5985 H         1 <0>         0.1605
     50 H16         5.6360   -8.0890    4.0331 H         1 <0>         0.1617
     51 H17         3.7210   -9.0248    2.8298 H         1 <0>         0.1613
     52 H18        -2.5345   -7.0195   -1.0482 H         1 <0>         0.1152
     53 H19        -2.5985   -5.2463   -0.9070 H         1 <0>         0.1152
     54 H20        -0.8309   -5.0449   -2.6343 H         1 <0>         0.1464
     55 H21        -0.7669   -6.8181   -2.7755 H         1 <0>         0.1367
     56 H22        -1.3172   -6.4806   -5.1347 H         1 <0>         0.1234
     57 H23        -2.8345   -5.6560   -5.5661 H         1 <0>         0.1288
     58 H24        -1.4816   -4.7271   -4.8768 H         1 <0>         0.1234
     59 H25        -3.6167   -7.4012   -2.4782 H         1 <0>         0.1247
     60 H26        -4.0602   -7.1911   -4.1892 H         1 <0>         0.1290
     61 H27        -2.5428   -8.0157   -3.7579 H         1 <0>         0.1256
     62 H28        -3.1626   -5.1912   -3.2503 H         1 <0>         0.4281
@<TRIPOS>BOND
     1    1    2 1
     2    1   36 1
     3    1   37 1
     4    1   38 1
     5    2    3 1
     6    2   39 1
     7    2   40 1
     8    3    4 1
     9    4    9 ar
    10    4    5 ar
    11    5    6 ar
    12    5   41 1
    13    6    7 ar
    14    6   14 1
    15    7    8 ar
    16    7   42 1
    17    8    9 ar
    18    8   43 1
    19    9   10 1
    20   10   11 1
    21   11   12 1
    22   11   44 1
    23   11   45 1
    24   12   13 2
    25   12   46 1
    26   13   47 1
    27   13   48 1
    28   14   15 1
    29   14   29 1
    30   14   16 1
    31   16   26 2
    32   16   17 1
    33   17   18 2
    34   17   19 1
    35   19   24 ar
    36   19   20 ar
    37   20   21 ar
    38   20   49 1
    39   21   22 ar
    40   21   35 1
    41   22   23 ar
    42   22   50 1
    43   23   24 ar
    44   23   51 1
    45   24   25 1
    46   25   26 1
    47   26   27 1
    48   27   28 2
    49   27   29 am
    50   29   30 1
    51   30   31 1
    52   30   52 1
    53   30   53 1
    54   31   32 1
    55   31   54 1
    56   31   55 1
    57   32   33 1
    58   32   34 1
    59   32   62 1
    60   33   56 1
    61   33   57 1
    62   33   58 1
    63   34   59 1
    64   34   60 1
    65   34   61 1
@<TRIPOS>MOLECULE
ZINC39360545
   66    67     0     0     0
SMALL
USER_CHARGES

@<TRIPOS>ATOM
      1 C1         -4.1835    2.2716   -2.6101 C.3       1 <0>        -0.1351
      2 C2         -4.0568    0.8687   -3.2072 C.3       1 <0>        -0.0361
      3 H1         -5.0252    0.5113   -3.5572 H         1 <0>         0.1636
      4 C3         -3.4630   -0.0944   -2.1944 C.2       1 <0>        -0.2367
      5 C4         -2.3270   -0.5008   -2.7653 C.2       1 <0>         0.0531
      6 N1         -2.1607    0.0831   -3.9727 N.2       1 <0>        -0.1609
      7 N2         -3.0703    0.8551   -4.3008 N.2       1 <0>        -0.0999
      8 C5         -1.3608   -1.4783   -2.1472 C.3       1 <0>        -0.1107
      9 C6         -4.0255   -0.4973   -0.8556 C.3       1 <0>         0.1094
     10 H2         -3.3413   -1.1920   -0.3683 H         1 <0>         0.1511
     11 C7         -5.3830   -1.1741   -1.0555 C.3       1 <0>        -0.1806
     12 N3         -4.1923    0.6961   -0.0154 N.4       1 <0>        -0.3824
     13 C8         -4.7445    0.3038    1.2881 C.3       1 <0>        -0.0739
     14 C9         -2.8882    1.3435    0.1800 C.3       1 <0>        -0.0457
     15 C10        -3.0822    2.6673    0.9222 C.3       1 <0>         0.0186
     16 C11        -3.2966    2.4188    2.3986 C.2       1 <0>         0.1145
     17 N4         -2.2191    2.6693    3.0365 N.2       1 <0>        -0.4112
     18 C12        -1.1588    3.1043    2.1203 C.3       1 <0>        -0.3169
     19 H3         -0.4606    2.2872    1.9382 H         1 <0>         0.1422
     20 N5         -1.8433    3.4825    0.8608 N.3       1 <0>        -0.4592
     21 C13        -1.0319    3.1197   -0.3088 C.3       1 <0>         0.0161
     22 C14         0.1750    4.0554   -0.4022 C.3       1 <0>        -0.1436
     23 C15         0.9358    3.7784   -1.7005 C.3       1 <0>        -0.0890
     24 C16         0.0516    4.1377   -2.8963 C.3       1 <0>        -0.1506
     25 C17         2.2098    4.6249   -1.7356 C.3       1 <0>        -0.1488
     26 S1         -0.2817    4.5336    2.8117 S.o2      1 <0>         2.4359
     27 O1          0.7369    4.9203    1.8995 O.2       1 <0>        -0.9062
     28 O2         -1.2435    5.4958    3.2220 O.2       1 <0>        -0.9028
     29 C18         0.5063    3.8425    4.2923 C.3       1 <0>        -0.5571
     30 C19         1.2937    4.9402    5.0105 C.3       1 <0>        -0.1474
     31 C20        -0.5681    3.2886    5.2303 C.3       1 <0>        -0.1462
     32 H4         -4.4130    2.9843   -3.4023 H         1 <0>         0.1085
     33 H5         -4.9838    2.2807   -1.8702 H         1 <0>         0.0669
     34 H6         -3.2439    2.5494   -2.1325 H         1 <0>         0.0676
     35 H7         -1.6300   -2.4921   -2.4436 H         1 <0>         0.1008
     36 H8         -0.3501   -1.2560   -2.4896 H         1 <0>         0.0985
     37 H9         -1.4033   -1.3939   -1.0613 H         1 <0>         0.0761
     38 H10        -6.0671   -0.4794   -1.5428 H         1 <0>         0.0859
     39 H11        -5.2592   -2.0596   -1.6790 H         1 <0>         0.1119
     40 H12        -5.7898   -1.4655   -0.0872 H         1 <0>         0.0963
     41 H13        -5.5943   -0.3619    1.1373 H         1 <0>         0.1389
     42 H14        -3.9780   -0.2110    1.8674 H         1 <0>         0.1296
     43 H15        -5.0709    1.1934    1.8269 H         1 <0>         0.1345
     44 H16        -2.2421    0.6898    0.7660 H         1 <0>         0.1374
     45 H17        -2.4284    1.5346   -0.7896 H         1 <0>         0.1458
     46 H18        -4.2201    2.0811    2.8451 H         1 <0>         0.2088
     47 H19        -0.6869    2.0908   -0.2067 H         1 <0>         0.0520
     48 H20        -1.6346    3.2129   -1.2122 H         1 <0>         0.0969
     49 H21        -0.1663    5.0905   -0.3949 H         1 <0>         0.0850
     50 H22         0.8342    3.8841    0.4488 H         1 <0>         0.1081
     51 H23         1.2001    2.7220   -1.7484 H         1 <0>         0.0653
     52 H24         0.5936    3.9404   -3.8212 H         1 <0>         0.0610
     53 H25        -0.8560    3.5347   -2.8713 H         1 <0>         0.0416
     54 H26        -0.2127    5.1941   -2.8483 H         1 <0>         0.0606
     55 H27         2.8397    4.3689   -0.8837 H         1 <0>         0.0596
     56 H28         2.7518    4.4276   -2.6605 H         1 <0>         0.0578
     57 H29         1.9455    5.6813   -1.6876 H         1 <0>         0.0598
     58 H30         1.1841    3.0398    4.0020 H         1 <0>         0.1342
     59 H31         0.6159    5.7430    5.3008 H         1 <0>         0.0771
     60 H32         1.7672    4.5249    5.9002 H         1 <0>         0.0910
     61 H33         2.0591    5.3348    4.3422 H         1 <0>         0.0760
     62 H34        -1.0420    2.4224    4.7687 H         1 <0>         0.0863
     63 H35        -0.1091    2.9921    6.1735 H         1 <0>         0.0789
     64 H36        -1.3185    4.0568    5.4171 H         1 <0>         0.0761
     65 H37        -3.9224    3.2194    0.5011 H         1 <0>         0.1396
     66 H38        -4.8233    1.3405   -0.4678 H         1 <0>         0.4220
@<TRIPOS>BOND
     1    1    2 1
     2    1   32 1
     3    1   33 1
     4    1   34 1
     5    2    3 1
     6    2    7 1
     7    2    4 1
     8    4    5 2
     9    4    9 1
    10    5    6 1
    11    5    8 1
    12    6    7 2
    13    8   35 1
    14    8   36 1
    15    8   37 1
    16    9   10 1
    17    9   11 1
    18    9   12 1
    19   11   38 1
    20   11   39 1
    21   11   40 1
    22   12   13 1
    23   12   14 1
    24   12   66 1
    25   13   41 1
    26   13   42 1
    27   13   43 1
    28   14   15 1
    29   14   44 1
    30   14   45 1
    31   15   20 1
    32   15   16 1
    33   15   65 1
    34   16   17 2
    35   16   46 1
    36   17   18 1
    37   18   19 1
    38   18   20 1
    39   18   26 1
    40   20   21 1
    41   21   22 1
    42   21   47 1
    43   21   48 1
    44   22   23 1
    45   22   49 1
    46   22   50 1
    47   23   24 1
    48   23   25 1
    49   23   51 1
    50   24   52 1
    51   24   53 1
    52   24   54 1
    53   25   55 1
    54   25   56 1
    55   25   57 1
    56   26   27 2
    57   26   28 2
    58   26   29 1
    59   29   30 1
    60   29   31 1
    61   29   58 1
    62   30   59 1
    63   30   60 1
    64   30   61 1
    65   31   62 1
    66   31   63 1
    67   31   64 1
@<TRIPOS>MOLECULE
ZINC08244349
   50    52     0     0     0
SMALL
USER_CHARGES
N-(2-methylsulfanylphenyl)-2-[propyl-[[5-(2-thienyl)-1,3,4-oxadiazol-2-yl]methyl]amino]-acetamide
@<TRIPOS>ATOM
      1 C1         -3.1412   -1.4448    0.2182 C.3       1 <0>        -0.1541
      2 C2         -1.8116   -0.7734    0.5678 C.3       1 <0>        -0.1485
      3 C3         -2.0647    0.6813    0.9689 C.3       1 <0>        -0.0170
      4 C4          0.1088    1.2866    0.0901 C.3       1 <0>         0.1106
      5 C5         -0.4756    2.1108   -1.0281 C.2       1 <0>         0.0698
      6 N1         -0.2638    3.3790   -1.2404 N.2       1 <0>        -0.2096
      7 N2         -0.9170    3.7569   -2.2824 N.2       1 <0>        -0.2634
      8 C6         -1.5831    2.7333   -2.7708 C.2       1 <0>         0.3209
      9 O1         -1.3147    1.6711   -1.9836 O.3       1 <0>        -0.2091
     10 C7         -2.4565    2.7444   -3.9539 C.2       1 <0>        -0.1766
     11 C8         -2.7738    3.7962   -4.7931 C.2       1 <0>        -0.0410
     12 C9         -3.6212    3.5575   -5.8500 C.2       1 <0>        -0.1768
     13 C10        -4.1249    2.3085   -6.0292 C.2       1 <0>        -0.1160
     14 S1         -3.3900    1.4050   -4.6765 S.3       1 <0>         0.1280
     15 C11        -0.1412    0.7500    2.4379 C.3       1 <0>        -0.0311
     16 C12        -0.8886    1.1691    3.6775 C.2       1 <0>         0.5034
     17 O2         -1.7975    1.9684    3.5966 O.2       1 <0>        -0.5084
     18 N3         -0.5472    0.6560    4.8761 N.am      1 <0>        -0.6348
     19 C13        -1.3088    0.9620    6.0120 C.ar      1 <0>         0.1384
     20 C14        -2.0063    2.1584    6.0798 C.ar      1 <0>        -0.1064
     21 C15        -2.7613    2.4560    7.1991 C.ar      1 <0>        -0.1036
     22 C16        -2.8155    1.5683    8.2582 C.ar      1 <0>        -0.0977
     23 C17        -2.1191    0.3759    8.2021 C.ar      1 <0>        -0.1137
     24 C18        -1.3628    0.0664    7.0803 C.ar      1 <0>        -0.1008
     25 S2         -0.4733   -1.4527    7.0059 S.3       1 <0>        -0.1311
     26 C19        -0.8457   -2.2574    8.5884 C.3       1 <0>        -0.1353
     27 H1         -3.8015   -1.4165    1.0850 H         1 <0>         0.0688
     28 H2         -3.6085   -0.9151   -0.6119 H         1 <0>         0.0675
     29 H3         -2.9609   -2.4811   -0.0675 H         1 <0>         0.0808
     30 H4         -1.1513   -0.8017   -0.2989 H         1 <0>         0.0866
     31 H5         -1.3443   -1.3031    1.3980 H         1 <0>         0.0884
     32 H6         -2.6945    0.7087    1.8580 H         1 <0>         0.1435
     33 H7         -2.5658    1.2013    0.1525 H         1 <0>         0.1263
     34 H8          0.2160    0.2528   -0.2383 H         1 <0>         0.1683
     35 H9          1.0864    1.6846    0.3622 H         1 <0>         0.1784
     36 H10        -2.3637    4.7810   -4.6247 H         1 <0>         0.1554
     37 H11        -3.8867    4.3555   -6.5277 H         1 <0>         0.1574
     38 H12        -4.7983    1.9529   -6.7950 H         1 <0>         0.2049
     39 H13        -0.1557   -0.3367    2.3548 H         1 <0>         0.1709
     40 H14         0.8906    1.0958    2.5014 H         1 <0>         0.1721
     41 H15         0.2256    0.0748    4.9525 H         1 <0>         0.4215
     42 H16        -1.9632    2.8560    5.2565 H         1 <0>         0.1543
     43 H17        -3.3072    3.3866    7.2483 H         1 <0>         0.1355
     44 H18        -3.4036    1.8078    9.1318 H         1 <0>         0.1348
     45 H19        -2.1631   -0.3147    9.0313 H         1 <0>         0.1337
     46 H20        -0.3329   -3.2180    8.6371 H         1 <0>         0.1165
     47 H21        -0.5068   -1.6228    9.4073 H         1 <0>         0.0905
     48 H22        -1.9210   -2.4149    8.6718 H         1 <0>         0.0900
     49 N4         -0.7888    1.3677    1.2616 N.4       1 <0>        -0.3865
     50 H23        -0.9808    2.3553    1.4668 H         1 <0>         0.4446
@<TRIPOS>BOND
     1    1    2 1
     2    1   27 1
     3    1   28 1
     4    1   29 1
     5    2    3 1
     6    2   30 1
     7    2   31 1
     8    3   32 1
     9    3   33 1
    10    3   49 1
    11    4    5 1
    12    4   34 1
    13    4   35 1
    14    4   49 1
    15    5    9 1
    16    5    6 2
    17    6    7 1
    18    7    8 2
    19    8    9 1
    20    8   10 1
    21   10   14 1
    22   10   11 2
    23   11   12 1
    24   11   36 1
    25   12   13 2
    26   12   37 1
    27   13   14 1
    28   13   38 1
    29   15   16 1
    30   15   39 1
    31   15   40 1
    32   15   49 1
    33   16   17 2
    34   16   18 am
    35   18   19 1
    36   18   41 1
    37   19   24 ar
    38   19   20 ar
    39   20   21 ar
    40   20   42 1
    41   21   22 ar
    42   21   43 1
    43   22   23 ar
    44   22   44 1
    45   23   24 ar
    46   23   45 1
    47   24   25 1
    48   25   26 1
    49   26   46 1
    50   26   47 1
    51   26   48 1
    52   49   50 1
@<TRIPOS>MOLECULE
ZINC27119024
   57    59     0     0     0
SMALL
USER_CHARGES
N-[(2S)-2-diethylamino-2-(2-furyl)ethyl]-2-(1-ethylbenzimidazol-2-yl)sulfanyl-acetamide
@<TRIPOS>ATOM
      1 C1          0.3084    2.5193    2.3209 C.3       1 <0>        -0.1744
      2 C2         -0.6421    3.1348    3.3497 C.3       1 <0>         0.0999
      3 N1         -0.8082    4.5629    3.0682 N.pl3     1 <0>        -0.4686
      4 C3         -0.0379    5.5958    3.5772 C.ar      1 <0>         0.0584
      5 C4          1.0466    5.6513    4.4393 C.ar      1 <0>        -0.1090
      6 C5          1.6064    6.8707    4.7611 C.ar      1 <0>        -0.0957
      7 C6          1.0915    8.0429    4.2277 C.ar      1 <0>        -0.1216
      8 C7          0.0201    8.0058    3.3636 C.ar      1 <0>        -0.0680
      9 C8         -0.5614    6.7795    3.0316 C.ar      1 <0>         0.0533
     10 N2         -1.6079    6.4268    2.2399 N.2       1 <0>        -0.4989
     11 C9         -1.7553    5.1248    2.2594 C.2       1 <0>         0.2390
     12 S1         -2.9904    4.2321    1.3749 S.3       1 <0>         0.0784
     13 C10        -3.8431    5.6028    0.5562 C.3       1 <0>        -0.1529
     14 C11        -4.9730    5.0625   -0.2820 C.2       1 <0>         0.5445
     15 O1         -5.1812    3.8684   -0.3219 O.2       1 <0>        -0.4976
     16 N3         -5.7521    5.9064   -0.9873 N.am      1 <0>        -0.7563
     17 C12        -6.8505    5.3812   -1.8021 C.3       1 <0>         0.1011
     18 C13        -7.5713    6.5399   -2.4941 C.3       1 <0>         0.1284
     19 H1         -6.9012    7.0574   -3.1963 H         1 <0>         0.1662
     20 C14        -8.7744    6.0133   -3.2332 C.2       1 <0>        -0.1002
     21 C15        -8.8419    5.7708   -4.5546 C.2       1 <0>        -0.1271
     22 C16       -10.1445    5.2875   -4.8164 C.2       1 <0>        -0.2113
     23 C17       -10.7977    5.2713   -3.6406 C.2       1 <0>         0.0068
     24 O2         -9.9629    5.7119   -2.6852 O.3       1 <0>        -0.1775
     25 N4         -8.0045    7.5182   -1.4876 N.4       1 <0>        -0.4013
     26 C18        -8.5960    8.7023   -2.1247 C.3       1 <0>        -0.0144
     27 C19        -7.4844    9.5739   -2.7127 C.3       1 <0>        -0.1903
     28 C20        -8.9410    6.9112   -0.5324 C.3       1 <0>        -0.0219
     29 C21        -9.0469    7.7967    0.7108 C.3       1 <0>        -0.1856
     30 H2          0.4331    1.4470    2.5323 H         1 <0>         0.0845
     31 H3          1.2858    3.0205    2.3788 H         1 <0>         0.0658
     32 H4         -0.1104    2.6478    1.3119 H         1 <0>         0.0667
     33 H5         -1.6196    2.6336    3.2918 H         1 <0>         0.0970
     34 H6         -0.2234    3.0063    4.3587 H         1 <0>         0.0990
     35 H7          1.4520    4.7422    4.8584 H         1 <0>         0.1244
     36 H8          2.4513    6.9126    5.4325 H         1 <0>         0.1345
     37 H9          1.5385    8.9913    4.4867 H         1 <0>         0.1335
     38 H10        -0.3768    8.9225    2.9530 H         1 <0>         0.1291
     39 H11        -4.2455    6.2899    1.3151 H         1 <0>         0.1320
     40 H12        -3.1341    6.1430   -0.0884 H         1 <0>         0.1345
     41 H13        -5.5632    6.9895   -0.9511 H         1 <0>         0.4153
     42 H14        -6.4480    4.6941   -2.5610 H         1 <0>         0.1205
     43 H15        -7.5594    4.8409   -1.1575 H         1 <0>         0.1022
     44 H16        -8.0518    5.9153   -5.2766 H         1 <0>         0.1622
     45 H17       -10.5405    4.9921   -5.7768 H         1 <0>         0.1643
     46 H18       -11.8202    4.9575   -3.4904 H         1 <0>         0.2187
     47 H19        -9.2768    8.3847   -2.9283 H         1 <0>         0.1292
     48 H20        -9.1573    9.2799   -1.3755 H         1 <0>         0.1364
     49 H21        -7.9273   10.4606   -3.1898 H         1 <0>         0.1109
     50 H22        -6.9231    8.9963   -3.4619 H         1 <0>         0.0788
     51 H23        -6.8036    9.8914   -1.9091 H         1 <0>         0.0840
     52 H24        -9.9319    6.8162   -1.0004 H         1 <0>         0.1401
     53 H25        -8.5752    5.9150   -0.2429 H         1 <0>         0.1313
     54 H26        -9.7482    7.3421    1.4261 H         1 <0>         0.1088
     55 H27        -9.4127    8.7929    0.4213 H         1 <0>         0.0806
     56 H28        -8.0560    7.8917    1.1788 H         1 <0>         0.0806
     57 H29        -7.1151    7.8441   -0.9284 H         1 <0>         0.4319
@<TRIPOS>BOND
     1    1    2 1
     2    1   30 1
     3    1   31 1
     4    1   32 1
     5    2    3 1
     6    2   33 1
     7    2   34 1
     8    3   11 1
     9    3    4 1
    10    4    9 ar
    11    4    5 ar
    12    5    6 ar
    13    5   35 1
    14    6    7 ar
    15    6   36 1
    16    7    8 ar
    17    7   37 1
    18    8    9 ar
    19    8   38 1
    20    9   10 1
    21   10   11 2
    22   11   12 1
    23   12   13 1
    24   13   14 1
    25   13   39 1
    26   13   40 1
    27   14   15 2
    28   14   16 am
    29   16   17 1
    30   16   41 1
    31   17   18 1
    32   17   42 1
    33   17   43 1
    34   18   19 1
    35   18   20 1
    36   18   25 1
    37   20   24 1
    38   20   21 2
    39   21   22 1
    40   21   44 1
    41   22   23 2
    42   22   45 1
    43   23   24 1
    44   23   46 1
    45   25   26 1
    46   25   28 1
    47   25   57 1
    48   26   27 1
    49   26   47 1
    50   26   48 1
    51   27   49 1
    52   27   50 1
    53   27   51 1
    54   28   29 1
    55   28   52 1
    56   28   53 1
    57   29   54 1
    58   29   55 1
    59   29   56 1
@<TRIPOS>MOLECULE
ZINC36146669
   54    56     0     0     0
SMALL
USER_CHARGES

@<TRIPOS>ATOM
      1 C1          0.5857   -1.0531   -2.2862 C.2       1 <0>        -0.1130
      2 C2          1.4540   -1.1227   -1.3077 C.2       1 <0>        -0.2197
      3 C3          1.0966   -0.5903    0.0561 C.3       1 <0>         0.0155
      4 N1          1.3038   -1.6410    1.0616 N.4       1 <0>        -0.3743
      5 C4          2.6761   -2.1546    0.9575 C.3       1 <0>        -0.0070
      6 C5          3.6633   -1.0570    1.3595 C.3       1 <0>         0.0134
      7 H1          3.4446   -0.6860    2.3608 H         1 <0>         0.1142
      8 C6          5.1227   -1.5620    1.2625 C.3       1 <0>        -0.1415
      9 C7          5.8593   -0.3431    0.7403 C.2       1 <0>         0.1503
     10 N2          4.9873    0.4906    0.2808 N.2       1 <0>        -0.2701
     11 O1          3.6593    0.0181    0.3984 O.3       1 <0>        -0.1992
     12 C8          7.3219   -0.1441    0.7554 C.ar      1 <0>        -0.0621
     13 C9          8.1584   -1.1319    1.2792 C.ar      1 <0>        -0.0690
     14 C10         9.5241   -0.9404    1.2900 C.ar      1 <0>        -0.1123
     15 C11        10.0662    0.2289    0.7832 C.ar      1 <0>        -0.0069
     16 C12         9.2419    1.2125    0.2627 C.ar      1 <0>        -0.1112
     17 C13         7.8750    1.0301    0.2406 C.ar      1 <0>        -0.0592
     18 Cl1        11.7863    0.4628    0.8009 Cl        1 <0>        -0.0461
     19 C14         0.3523   -2.7358    0.8291 C.3       1 <0>        -0.0448
     20 C15        -1.0743   -2.2257    1.0426 C.3       1 <0>         0.0870
     21 H2         -1.2622   -1.3830    0.3773 H         1 <0>         0.1311
     22 C16        -2.0683   -3.3480    0.7374 C.3       1 <0>         0.0328
     23 O2         -3.4012   -2.8402    0.8235 O.3       1 <0>        -0.3690
     24 C17        -4.4125   -3.8134    0.5545 C.3       1 <0>         0.1487
     25 C18        -5.7710   -3.1720    0.6728 C.2       1 <0>        -0.0367
     26 C19        -6.4516   -2.5812   -0.3258 C.2       1 <0>        -0.1741
     27 C20        -7.6692   -2.1198    0.2253 C.2       1 <0>        -0.2194
     28 C21        -7.6597   -2.4562    1.5277 C.2       1 <0>        -0.0188
     29 O3         -6.5101   -3.0984    1.7918 O.3       1 <0>        -0.1717
     30 O4         -1.2319   -1.8057    2.3994 O.3       1 <0>        -0.5425
     31 H3         -0.3862   -0.6142   -2.1155 H         1 <0>         0.1113
     32 H4          0.8435   -1.4306   -3.2647 H         1 <0>         0.1223
     33 H5          2.4259   -1.5617   -1.4784 H         1 <0>         0.1311
     34 H6          1.7297    0.2657    0.2893 H         1 <0>         0.1541
     35 H7          0.0512   -0.2818    0.0631 H         1 <0>         0.1325
     36 H8          2.7949   -3.0110    1.6213 H         1 <0>         0.1484
     37 H9          2.8724   -2.4613   -0.0699 H         1 <0>         0.1448
     38 H10         5.4986   -1.8500    2.2443 H         1 <0>         0.1229
     39 H11         5.1993   -2.3911    0.5591 H         1 <0>         0.1182
     40 H12         7.7367   -2.0439    1.6753 H         1 <0>         0.1394
     41 H13        10.1721   -1.7036    1.6949 H         1 <0>         0.1464
     42 H14         9.6706    2.1223   -0.1307 H         1 <0>         0.1465
     43 H15         7.2334    1.7959   -0.1696 H         1 <0>         0.1437
     44 H16         0.4591   -3.0991   -0.1930 H         1 <0>         0.1446
     45 H17         0.5558   -3.5483    1.5266 H         1 <0>         0.1382
     46 H18        -1.8888   -3.7288   -0.2680 H         1 <0>         0.0721
     47 H19        -1.9392   -4.1541    1.4597 H         1 <0>         0.0675
     48 H20        -4.2816   -4.2039   -0.4547 H         1 <0>         0.0869
     49 H21        -4.3320   -4.6291    1.2730 H         1 <0>         0.0727
     50 H22        -6.1296   -2.4785   -1.3515 H         1 <0>         0.1504
     51 H23        -8.4557   -1.5972   -0.2988 H         1 <0>         0.1543
     52 H24        -8.4451   -2.2487    2.2393 H         1 <0>         0.2090
     53 H25        -1.0793   -2.5063    3.0482 H         1 <0>         0.3883
     54 H26         1.1570   -1.2579    1.9834 H         1 <0>         0.4301
@<TRIPOS>BOND
     1    1    2 2
     2    1   31 1
     3    1   32 1
     4    2    3 1
     5    2   33 1
     6    3    4 1
     7    3   34 1
     8    3   35 1
     9    4    5 1
    10    4   19 1
    11    4   54 1
    12    5    6 1
    13    5   36 1
    14    5   37 1
    15    6    7 1
    16    6   11 1
    17    6    8 1
    18    8    9 1
    19    8   38 1
    20    8   39 1
    21    9   10 2
    22    9   12 1
    23   10   11 1
    24   12   17 ar
    25   12   13 ar
    26   13   14 ar
    27   13   40 1
    28   14   15 ar
    29   14   41 1
    30   15   16 ar
    31   15   18 1
    32   16   17 ar
    33   16   42 1
    34   17   43 1
    35   19   20 1
    36   19   44 1
    37   19   45 1
    38   20   21 1
    39   20   22 1
    40   20   30 1
    41   22   23 1
    42   22   46 1
    43   22   47 1
    44   23   24 1
    45   24   25 1
    46   24   48 1
    47   24   49 1
    48   25   29 1
    49   25   26 2
    50   26   27 1
    51   26   50 1
    52   27   28 2
    53   27   51 1
    54   28   29 1
    55   28   52 1
    56   30   53 1
@<TRIPOS>MOLECULE
ZINC40318372
   59    61     0     0     0
SMALL
USER_CHARGES

@<TRIPOS>ATOM
      1 C1          0.9507   -0.0567   -0.3688 C.3       1 <0>         0.0206
      2 O1          0.6535   -1.4448   -0.5324 O.3       1 <0>        -0.3067
      3 C2         -0.6474   -1.8165   -0.4045 C.ar      1 <0>         0.1688
      4 C3         -1.6187   -0.8639   -0.1328 C.ar      1 <0>        -0.2072
      5 C4         -2.9404   -1.2443   -0.0037 C.ar      1 <0>        -0.0464
      6 C5         -3.2956   -2.5731   -0.1445 C.ar      1 <0>        -0.2045
      7 C6         -2.3294   -3.5245   -0.4148 C.ar      1 <0>        -0.0567
      8 C7         -1.0071   -3.1484   -0.5510 C.ar      1 <0>        -0.1491
      9 C8         -4.7382   -2.9853   -0.0026 C.3       1 <0>         0.0423
     10 N1         -5.3960   -2.9247   -1.3147 N.4       1 <0>        -0.3717
     11 C9         -4.8128   -3.9397   -2.2022 C.3       1 <0>        -0.0324
     12 C10        -4.9696   -5.3230   -1.5674 C.3       1 <0>         0.0532
     13 H1         -4.5750   -5.3103   -0.5514 H         1 <0>         0.1066
     14 C11        -4.2149   -6.3741   -2.4093 C.3       1 <0>        -0.1476
     15 C12        -5.1792   -7.5905   -2.3594 C.3       1 <0>        -0.1552
     16 C13        -6.5538   -6.8757   -2.3421 C.3       1 <0>         0.0445
     17 O2         -6.3529   -5.6942   -1.5469 O.3       1 <0>        -0.3835
     18 C14        -6.8333   -3.1823   -1.1541 C.3       1 <0>        -0.0507
     19 C15        -7.5211   -3.1037   -2.5186 C.3       1 <0>         0.0933
     20 H2         -7.0854   -3.8451   -3.1883 H         1 <0>         0.1337
     21 C16        -9.0163   -3.3824   -2.3528 C.3       1 <0>         0.0312
     22 O3         -9.6385   -3.4242   -3.6386 O.3       1 <0>        -0.2980
     23 C17       -10.9735   -3.6633   -3.6694 C.ar      1 <0>         0.1552
     24 C18       -11.6719   -3.8483   -2.4810 C.ar      1 <0>        -0.2244
     25 C19       -13.0214   -4.0898   -2.5065 C.ar      1 <0>        -0.0260
     26 C20       -13.6964   -4.1499   -3.7321 C.ar      1 <0>        -0.2233
     27 C21       -12.9884   -3.9628   -4.9258 C.ar      1 <0>        -0.0178
     28 C22       -11.6400   -3.7167   -4.8889 C.ar      1 <0>        -0.1594
     29 C23       -15.1416   -4.4086   -3.7654 C.2       1 <0>         0.3803
     30 O4        -15.7242   -4.4603   -4.8280 O.2       1 <0>        -0.4552
     31 O5         -7.3381   -1.7981   -3.0697 O.3       1 <0>        -0.5474
     32 H3          2.0215    0.1031   -0.4958 H         1 <0>         0.1118
     33 H4          0.4061    0.5219   -1.1149 H         1 <0>         0.0625
     34 H5          0.6513    0.2638    0.6291 H         1 <0>         0.0632
     35 H6         -1.3417    0.1740   -0.0220 H         1 <0>         0.1417
     36 H7         -3.6970   -0.5031    0.2078 H         1 <0>         0.1342
     37 H8         -2.6093   -4.5618   -0.5240 H         1 <0>         0.1346
     38 H9         -0.2533   -3.8912   -0.7665 H         1 <0>         0.1445
     39 H10        -4.7889   -4.0037    0.3826 H         1 <0>         0.1377
     40 H11        -5.2427   -2.3099    0.6883 H         1 <0>         0.1371
     41 H12        -5.3268   -3.9206   -3.1632 H         1 <0>         0.1377
     42 H13        -3.7544   -3.7265   -2.3519 H         1 <0>         0.1427
     43 H14        -4.0810   -6.0271   -3.4339 H         1 <0>         0.0904
     44 H15        -3.2559   -6.6204   -1.9536 H         1 <0>         0.0987
     45 H16        -5.0717   -8.2138   -3.2471 H         1 <0>         0.0970
     46 H17        -5.0285   -8.1742   -1.4512 H         1 <0>         0.0880
     47 H18        -6.8520   -6.6046   -3.3549 H         1 <0>         0.0725
     48 H19        -7.3074   -7.5158   -1.8835 H         1 <0>         0.1000
     49 H20        -6.9793   -4.1759   -0.7304 H         1 <0>         0.1687
     50 H21        -7.2639   -2.4358   -0.4867 H         1 <0>         0.1320
     51 H22        -9.1540   -4.3403   -1.8513 H         1 <0>         0.0862
     52 H23        -9.4694   -2.5911   -1.7556 H         1 <0>         0.0766
     53 H24       -11.1504   -3.8021   -1.5364 H         1 <0>         0.1315
     54 H25       -13.5628   -4.2337   -1.5832 H         1 <0>         0.1390
     55 H26       -13.5043   -4.0082   -5.8735 H         1 <0>         0.1442
     56 H27       -11.0938   -3.5683   -5.8087 H         1 <0>         0.1392
     57 H28       -15.6857   -4.5529   -2.8437 H         1 <0>         0.1079
     58 H29        -7.7023   -1.0867   -2.5253 H         1 <0>         0.3878
     59 H30        -5.2613   -2.0091   -1.7166 H         1 <0>         0.4262
@<TRIPOS>BOND
     1    1    2 1
     2    1   32 1
     3    1   33 1
     4    1   34 1
     5    2    3 1
     6    3    8 ar
     7    3    4 ar
     8    4    5 ar
     9    4   35 1
    10    5    6 ar
    11    5   36 1
    12    6    7 ar
    13    6    9 1
    14    7    8 ar
    15    7   37 1
    16    8   38 1
    17    9   10 1
    18    9   39 1
    19    9   40 1
    20   10   11 1
    21   10   18 1
    22   10   59 1
    23   11   12 1
    24   11   41 1
    25   11   42 1
    26   12   13 1
    27   12   17 1
    28   12   14 1
    29   14   15 1
    30   14   43 1
    31   14   44 1
    32   15   16 1
    33   15   45 1
    34   15   46 1
    35   16   17 1
    36   16   47 1
    37   16   48 1
    38   18   19 1
    39   18   49 1
    40   18   50 1
    41   19   20 1
    42   19   21 1
    43   19   31 1
    44   21   22 1
    45   21   51 1
    46   21   52 1
    47   22   23 1
    48   23   28 ar
    49   23   24 ar
    50   24   25 ar
    51   24   53 1
    52   25   26 ar
    53   25   54 1
    54   26   27 ar
    55   26   29 1
    56   27   28 ar
    57   27   55 1
    58   28   56 1
    59   29   30 2
    60   29   57 1
    61   31   58 1
@<TRIPOS>MOLECULE
ZINC59490474
   55    57     0     0     0
SMALL
USER_CHARGES

@<TRIPOS>ATOM
      1 C1         -0.3457    1.4752    0.2533 C.3       1 <0>        -0.1737
      2 C2         -0.1916   -0.0451    0.1773 C.3       1 <0>         0.0862
      3 N1          0.4355   -0.4094   -1.0956 N.pl3     1 <0>        -0.6290
      4 C3          0.7671   -1.7202   -1.3488 C.cat     1 <0>         0.4626
      5 N2          1.4420   -2.0266   -2.4220 N.pl3     1 <0>        -0.5972
      6 C4          1.8469   -0.9748   -3.3579 C.3       1 <0>         0.0630
      7 C5          2.6196   -1.5978   -4.5222 C.3       1 <0>        -0.0812
      8 C6          3.0362   -0.5158   -5.4848 C.ar      1 <0>        -0.1469
      9 C7          2.1996   -0.1590   -6.5262 C.ar      1 <0>        -0.0681
     10 C8          2.5793    0.8322   -7.4103 C.ar      1 <0>        -0.1492
     11 C9          3.8011    1.4702   -7.2523 C.ar      1 <0>         0.1439
     12 C10         4.6385    1.1107   -6.2063 C.ar      1 <0>        -0.2067
     13 C11         4.2519    0.1224   -5.3219 C.ar      1 <0>        -0.0668
     14 O1          4.1771    2.4453   -8.1210 O.3       1 <0>        -0.3129
     15 C12         5.4483    3.0586   -7.8972 C.3       1 <0>         0.0239
     16 S1          0.2800   -2.9854   -0.2232 S.3       1 <0>         0.0678
     17 C13        -0.6792   -4.1367   -1.2454 C.3       1 <0>        -0.1462
     18 H1         -0.0905   -4.4716   -2.0994 H         1 <0>         0.1637
     19 C14        -1.1533   -5.3412   -0.4070 C.3       1 <0>        -0.1246
     20 C15        -2.6621   -5.2521   -0.4796 C.2       1 <0>         0.5269
     21 O2         -3.4372   -6.0185    0.0510 O.2       1 <0>        -0.4287
     22 N3         -3.0054   -4.1925   -1.2224 N.am      1 <0>        -0.5148
     23 C16        -1.9680   -3.4921   -1.7070 C.2       1 <0>         0.5376
     24 O3         -2.0484   -2.5018   -2.4016 O.2       1 <0>        -0.4524
     25 C17        -4.3404   -3.8433   -1.4755 C.ar      1 <0>         0.0560
     26 C18        -5.0070   -2.9774   -0.6201 C.ar      1 <0>        -0.0678
     27 C19        -6.3213   -2.6348   -0.8719 C.ar      1 <0>        -0.1165
     28 C20        -6.9743   -3.1535   -1.9749 C.ar      1 <0>        -0.0637
     29 C21        -6.3146   -4.0165   -2.8301 C.ar      1 <0>        -0.1420
     30 C22        -4.9966   -4.3592   -2.5870 C.ar      1 <0>         0.1228
     31 F1         -4.3499   -5.1981   -3.4257 F         1 <0>        -0.1296
     32 H2          0.6360    1.9438    0.1846 H         1 <0>         0.0738
     33 H3         -0.9707    1.8187   -0.5710 H         1 <0>         0.0745
     34 H4         -0.8122    1.7462    1.2004 H         1 <0>         0.1002
     35 H5          0.4334   -0.3886    1.0016 H         1 <0>         0.1023
     36 H6         -1.1733   -0.5137    0.2459 H         1 <0>         0.1037
     37 H7          0.6168    0.2738   -1.7600 H         1 <0>         0.4268
     38 H8          0.9610   -0.4675   -3.7398 H         1 <0>         0.1085
     39 H9          2.4837   -0.2555   -2.8427 H         1 <0>         0.1099
     40 H10         3.5056   -2.1051   -4.1402 H         1 <0>         0.0926
     41 H11         1.9829   -2.3170   -5.0373 H         1 <0>         0.0912
     42 H12         1.2485   -0.6559   -6.6488 H         1 <0>         0.1305
     43 H13         1.9258    1.1101   -8.2240 H         1 <0>         0.1369
     44 H14         5.5902    1.6058   -6.0813 H         1 <0>         0.1341
     45 H15         4.9015   -0.1548   -4.5049 H         1 <0>         0.1266
     46 H16         5.6248    3.8174   -8.6595 H         1 <0>         0.1071
     47 H17         5.4585    3.5243   -6.9118 H         1 <0>         0.0584
     48 H18         6.2310    2.3019   -7.9496 H         1 <0>         0.0596
     49 H19        -0.8027   -6.2756   -0.8454 H         1 <0>         0.1582
     50 H20        -0.8128   -5.2487    0.6243 H         1 <0>         0.1433
     51 H21        -4.4986   -2.5720    0.2422 H         1 <0>         0.1384
     52 H22        -6.8399   -1.9609   -0.2060 H         1 <0>         0.1459
     53 H23        -8.0021   -2.8842   -2.1686 H         1 <0>         0.1479
     54 H24        -6.8274   -4.4203   -3.6906 H         1 <0>         0.1510
     55 H25         1.6758   -2.9509   -2.6005 H         1 <0>         0.4423
@<TRIPOS>BOND
     1    1    2 1
     2    1   32 1
     3    1   33 1
     4    1   34 1
     5    2    3 1
     6    2   35 1
     7    2   36 1
     8    3    4 1
     9    3   37 1
    10    4    5 2
    11    4   16 1
    12    5    6 1
    13    5   55 1
    14    6    7 1
    15    6   38 1
    16    6   39 1
    17    7    8 1
    18    7   40 1
    19    7   41 1
    20    8   13 ar
    21    8    9 ar
    22    9   10 ar
    23    9   42 1
    24   10   11 ar
    25   10   43 1
    26   11   12 ar
    27   11   14 1
    28   12   13 ar
    29   12   44 1
    30   13   45 1
    31   14   15 1
    32   15   46 1
    33   15   47 1
    34   15   48 1
    35   16   17 1
    36   17   18 1
    37   17   23 1
    38   17   19 1
    39   19   20 1
    40   19   49 1
    41   19   50 1
    42   20   21 2
    43   20   22 am
    44   22   23 am
    45   22   25 1
    46   23   24 2
    47   25   30 ar
    48   25   26 ar
    49   26   27 ar
    50   26   51 1
    51   27   28 ar
    52   27   52 1
    53   28   29 ar
    54   28   53 1
    55   29   30 ar
    56   29   54 1
    57   30   31 1
@<TRIPOS>MOLECULE
ZINC04931006
   65    66     0     0     0
SMALL
USER_CHARGES
N-(2-diethylaminoethyl)-N-[(4,5-dimethylthiazol-2-yl)carbamoylmethyl]-2-phenyl-butanamide
@<TRIPOS>ATOM
      1 C1         -1.7708    4.2235    1.0681 C.3       1 <0>        -0.1546
      2 C2         -0.3344    4.7349    1.1953 C.3       1 <0>        -0.1140
      3 C3          0.4536    3.8150    2.1300 C.3       1 <0>        -0.0602
      4 H1          0.0905    2.7927    2.0248 H         1 <0>         0.0967
      5 C4          0.2692    4.2695    3.5550 C.ar      1 <0>        -0.0929
      6 C5          0.6646    5.5392    3.9322 C.ar      1 <0>        -0.0888
      7 C6          0.4915    5.9576    5.2382 C.ar      1 <0>        -0.1203
      8 C7         -0.0684    5.1029    6.1693 C.ar      1 <0>        -0.1083
      9 C8         -0.4594    3.8315    5.7932 C.ar      1 <0>        -0.1206
     10 C9         -0.2902    3.4146    4.4862 C.ar      1 <0>        -0.1067
     11 C10         1.9163    3.8680    1.7712 C.2       1 <0>         0.5304
     12 O1          2.5910    4.8157    2.1142 O.2       1 <0>        -0.4937
     13 N1          2.4748    2.8622    1.0691 N.am      1 <0>        -0.6006
     14 C11         1.6306    1.8074    0.5024 C.3       1 <0>         0.0865
     15 C12         1.1044    2.2539   -0.8631 C.3       1 <0>        -0.0378
     16 C13        -0.3550    0.4032   -1.4180 C.3       1 <0>        -0.0145
     17 C14        -0.1043   -0.7265   -0.4171 C.3       1 <0>        -0.1949
     18 C15         0.9861    1.4467   -3.1429 C.3       1 <0>        -0.0072
     19 C16         1.1388    0.1825   -3.9909 C.3       1 <0>        -0.1892
     20 C17         3.9261    2.8236    0.8726 C.3       1 <0>         0.0963
     21 C18         4.5654    2.0549    2.0002 C.2       1 <0>         0.4856
     22 O2          3.8766    1.5855    2.8812 O.2       1 <0>        -0.4561
     23 N2          5.9026    1.8891    2.0296 N.am      1 <0>        -0.6174
     24 C19         6.4923    1.1801    3.0696 C.2       1 <0>         0.2849
     25 N3          5.9202    0.6060    4.1100 N.2       1 <0>        -0.5001
     26 C20         6.6335   -0.0385    5.0126 C.2       1 <0>         0.0724
     27 C21         7.9790   -0.0902    4.8562 C.2       1 <0>        -0.1860
     28 S1          8.1720    0.8294    3.3364 S.3       1 <0>         0.0615
     29 C22         9.0236   -0.7427    5.7246 C.3       1 <0>        -0.0629
     30 C23         5.9688   -0.6966    6.1942 C.3       1 <0>        -0.0803
     31 H2         -2.4579    5.0695    1.0551 H         1 <0>         0.0682
     32 H3         -2.0035    3.5794    1.9161 H         1 <0>         0.0654
     33 H4         -1.8742    3.6571    0.1426 H         1 <0>         0.0493
     34 H5          0.1365    4.7438    0.2123 H         1 <0>         0.0623
     35 H6         -0.3434    5.7458    1.6029 H         1 <0>         0.0854
     36 H7          1.1058    6.2055    3.2057 H         1 <0>         0.1290
     37 H8          0.7967    6.9511    5.5320 H         1 <0>         0.1252
     38 H9         -0.2006    5.4286    7.1905 H         1 <0>         0.1253
     39 H10        -0.8968    3.1637    6.5207 H         1 <0>         0.1252
     40 H11        -0.5954    2.4211    4.1924 H         1 <0>         0.1182
     41 H12         2.2171    0.8961    0.3856 H         1 <0>         0.1011
     42 H13         0.7909    1.6160    1.1705 H         1 <0>         0.1160
     43 H14         0.1522    2.7685   -0.7351 H         1 <0>         0.1408
     44 H15         1.8233    2.9298   -1.3262 H         1 <0>         0.1374
     45 H16        -1.0541    1.1208   -0.9884 H         1 <0>         0.1327
     46 H17        -0.7760   -0.0101   -2.3345 H         1 <0>         0.1333
     47 H18        -1.0386   -1.2527   -0.2216 H         1 <0>         0.1096
     48 H19         0.6253   -1.4228   -0.8304 H         1 <0>         0.0819
     49 H20         0.2790   -0.3087    0.5138 H         1 <0>         0.0806
     50 H21         0.0731    1.9685   -3.4297 H         1 <0>         0.1333
     51 H22         1.8439    2.0992   -3.3056 H         1 <0>         0.1286
     52 H23         0.2271   -0.4114   -3.9254 H         1 <0>         0.0817
     53 H24         1.3172    0.4610   -5.0295 H         1 <0>         0.1074
     54 H25         1.9810   -0.4030   -3.6220 H         1 <0>         0.0792
     55 H26         4.1515    2.3338   -0.0747 H         1 <0>         0.1143
     56 H27         4.3179    3.8406    0.8581 H         1 <0>         0.1318
     57 H28         6.4535    2.2645    1.3249 H         1 <0>         0.4270
     58 H29        10.0099   -0.5822    5.2893 H         1 <0>         0.0760
     59 H30         8.9913   -0.3053    6.7225 H         1 <0>         0.0856
     60 H31         8.8251   -1.8124    5.7902 H         1 <0>         0.0852
     61 H32         5.9047    0.0146    7.0177 H         1 <0>         0.0763
     62 H33         4.9662   -1.0193    5.9138 H         1 <0>         0.0738
     63 H34         6.5550   -1.5612    6.5057 H         1 <0>         0.0771
     64 N4          0.9351    1.0595   -1.7173 N.4       1 <0>        -0.3962
     65 H35         1.6977    0.4000   -1.5233 H         1 <0>         0.4248
@<TRIPOS>BOND
     1    1    2 1
     2    1   31 1
     3    1   32 1
     4    1   33 1
     5    2    3 1
     6    2   34 1
     7    2   35 1
     8    3    4 1
     9    3    5 1
    10    3   11 1
    11    5   10 ar
    12    5    6 ar
    13    6    7 ar
    14    6   36 1
    15    7    8 ar
    16    7   37 1
    17    8    9 ar
    18    8   38 1
    19    9   10 ar
    20    9   39 1
    21   10   40 1
    22   11   12 2
    23   11   13 am
    24   13   14 1
    25   13   20 1
    26   14   15 1
    27   14   41 1
    28   14   42 1
    29   15   43 1
    30   15   44 1
    31   15   64 1
    32   16   17 1
    33   16   45 1
    34   16   46 1
    35   16   64 1
    36   17   47 1
    37   17   48 1
    38   17   49 1
    39   18   19 1
    40   18   50 1
    41   18   51 1
    42   18   64 1
    43   19   52 1
    44   19   53 1
    45   19   54 1
    46   20   21 1
    47   20   55 1
    48   20   56 1
    49   21   22 2
    50   21   23 am
    51   23   24 1
    52   23   57 1
    53   24   28 1
    54   24   25 2
    55   25   26 1
    56   26   27 2
    57   26   30 1
    58   27   28 1
    59   27   29 1
    60   29   58 1
    61   29   59 1
    62   29   60 1
    63   30   61 1
    64   30   62 1
    65   30   63 1
    66   64   65 1
@<TRIPOS>MOLECULE
ZINC09177495
   65    67     0     0     0
SMALL
USER_CHARGES
(4E,5S)-1-(3-diethylaminopropyl)-4-[hydroxy-(2-thienyl)methylene]-5-(4-isopropoxyphenyl)pyrrolidine-2,3-dione
@<TRIPOS>ATOM
      1 C1         -5.5681    1.7841    4.2013 C.3       1 <0>        -0.1878
      2 C2         -5.1679    1.9977    2.7401 C.3       1 <0>        -0.0105
      3 C3         -6.3316    0.0133    1.9846 C.3       1 <0>        -0.0115
      4 C4         -6.1070   -1.4816    1.7486 C.3       1 <0>        -0.1904
      5 C5         -4.4245    0.8440    0.7454 C.3       1 <0>        -0.0047
      6 C6         -2.9238    1.1000    0.8981 C.3       1 <0>        -0.1873
      7 C7         -2.3095    1.3674   -0.4774 C.3       1 <0>         0.1420
      8 N1         -0.8726    1.6126   -0.3312 N.am      1 <0>        -0.5988
      9 C8         -0.2487    2.9206   -0.1101 C.3       1 <0>         0.2472
     10 H1         -0.4753    3.5851   -0.9439 H         1 <0>         0.1022
     11 C9          1.2410    2.6798   -0.0299 C.2       1 <0>        -0.3398
     12 C10         2.2300    3.6340    0.1665 C.2       1 <0>         0.3630
     13 C11         3.5777    3.2329    0.3318 C.2       1 <0>        -0.2872
     14 C12         4.7197    3.7100   -0.3052 C.2       1 <0>        -0.0744
     15 C13         5.9139    3.1383    0.0481 C.2       1 <0>        -0.1856
     16 C14         5.9275    2.1515    0.9854 C.2       1 <0>        -0.1830
     17 S1          4.2563    1.9895    1.4165 S.3       1 <0>         0.2493
     18 O1          1.9064    4.9458    0.2000 O.3       1 <0>        -0.4282
     19 C15         1.4233    1.3037   -0.1938 C.2       1 <0>         0.3806
     20 O2          2.4933    0.7196   -0.1890 O.2       1 <0>        -0.4016
     21 C16         0.0888    0.6747   -0.3745 C.2       1 <0>         0.4851
     22 O3         -0.1040   -0.5123   -0.5420 O.2       1 <0>        -0.4846
     23 C17        -0.7444    3.5232    1.1792 C.ar      1 <0>        -0.1369
     24 C18        -0.9526    2.7167    2.2828 C.ar      1 <0>        -0.0694
     25 C19        -1.4015    3.2676    3.4675 C.ar      1 <0>        -0.1680
     26 C20        -1.6548    4.6293    3.5458 C.ar      1 <0>         0.1431
     27 C21        -1.4505    5.4355    2.4354 C.ar      1 <0>        -0.2088
     28 C22        -0.9956    4.8808    1.2549 C.ar      1 <0>        -0.0448
     29 O4         -2.1026    5.1726    4.7083 O.3       1 <0>        -0.3098
     30 C23        -2.4568    6.5568    4.6834 C.3       1 <0>         0.0774
     31 C24        -3.5387    6.8253    5.7313 C.3       1 <0>        -0.1516
     32 C25        -1.2222    7.4047    4.9960 C.3       1 <0>        -0.1821
     33 H2         -6.5198    1.2545    4.2437 H         1 <0>         0.0799
     34 H3         -4.8019    1.1954    4.7056 H         1 <0>         0.0803
     35 H4         -5.6678    2.7505    4.6956 H         1 <0>         0.1057
     36 H5         -4.2162    2.5273    2.6977 H         1 <0>         0.1279
     37 H6         -5.9341    2.5864    2.2358 H         1 <0>         0.1303
     38 H7         -6.8815    0.1556    2.9149 H         1 <0>         0.1310
     39 H8         -6.9047    0.4299    1.1563 H         1 <0>         0.1307
     40 H9         -7.0678   -1.9743    1.5999 H         1 <0>         0.1062
     41 H10        -5.4866   -1.6205    0.8631 H         1 <0>         0.0798
     42 H11        -5.6065   -1.9150    2.6145 H         1 <0>         0.0807
     43 H12        -4.8855    1.6843    0.2263 H         1 <0>         0.1335
     44 H13        -4.5807   -0.0685    0.1699 H         1 <0>         0.1329
     45 H14        -2.4496    0.2257    1.3440 H         1 <0>         0.0932
     46 H15        -2.7666    1.9661    1.5408 H         1 <0>         0.1032
     47 H16        -2.7837    2.2417   -0.9234 H         1 <0>         0.0955
     48 H17        -2.4668    0.5013   -1.1202 H         1 <0>         0.0978
     49 H18         4.6669    4.4953   -1.0448 H         1 <0>         0.1459
     50 H19         6.8339    3.4668   -0.4124 H         1 <0>         0.1439
     51 H20         6.7753    1.6045    1.3706 H         1 <0>         0.1949
     52 H21         2.7326    5.4892    0.3488 H         1 <0>         0.4181
     53 H22        -0.7602    1.6559    2.2198 H         1 <0>         0.1224
     54 H23        -1.5594    2.6379    4.3307 H         1 <0>         0.1297
     55 H24        -1.6466    6.4959    2.4940 H         1 <0>         0.1340
     56 H25        -0.8365    5.5079    0.3902 H         1 <0>         0.1315
     57 H26        -2.8356    6.8172    3.6951 H         1 <0>         0.0754
     58 H27        -3.1599    6.5649    6.7196 H         1 <0>         0.0698
     59 H28        -3.8088    7.8812    5.7123 H         1 <0>         0.0813
     60 H29        -4.4182    6.2212    5.5086 H         1 <0>         0.0621
     61 H30        -0.8434    7.1443    5.9844 H         1 <0>         0.0703
     62 H31        -0.4514    7.2134    4.2495 H         1 <0>         0.0624
     63 H32        -1.4923    8.4606    4.9771 H         1 <0>         0.0766
     64 N2         -5.0161    0.6790    2.0898 N.4       1 <0>        -0.3964
     65 H33        -4.3919    0.0960    2.6596 H         1 <0>         0.4261
@<TRIPOS>BOND
     1    1    2 1
     2    1   33 1
     3    1   34 1
     4    1   35 1
     5    2   36 1
     6    2   37 1
     7    2   64 1
     8    3    4 1
     9    3   38 1
    10    3   39 1
    11    3   64 1
    12    4   40 1
    13    4   41 1
    14    4   42 1
    15    5    6 1
    16    5   43 1
    17    5   44 1
    18    5   64 1
    19    6    7 1
    20    6   45 1
    21    6   46 1
    22    7    8 1
    23    7   47 1
    24    7   48 1
    25    8   21 am
    26    8    9 1
    27    9   10 1
    28    9   11 1
    29    9   23 1
    30   11   12 2
    31   11   19 1
    32   12   13 1
    33   12   18 1
    34   13   17 1
    35   13   14 2
    36   14   15 1
    37   14   49 1
    38   15   16 2
    39   15   50 1
    40   16   17 1
    41   16   51 1
    42   18   52 1
    43   19   20 2
    44   19   21 1
    45   21   22 2
    46   23   28 ar
    47   23   24 ar
    48   24   25 ar
    49   24   53 1
    50   25   26 ar
    51   25   54 1
    52   26   27 ar
    53   26   29 1
    54   27   28 ar
    55   27   55 1
    56   28   56 1
    57   29   30 1
    58   30   31 1
    59   30   32 1
    60   30   57 1
    61   31   58 1
    62   31   59 1
    63   31   60 1
    64   32   61 1
    65   32   62 1
    66   32   63 1
    67   64   65 1
@<TRIPOS>MOLECULE
ZINC35744186
   67    71     0     0     0
SMALL
USER_CHARGES

@<TRIPOS>ATOM
      1 C1          6.8401   -3.8907    3.9651 C.ar      1 <0>        -0.0914
      2 C2          7.5089   -3.8486    2.7551 C.ar      1 <0>        -0.1107
      3 C3          6.9723   -3.1524    1.6910 C.ar      1 <0>        -0.0822
      4 C4          5.7546   -2.4917    1.8372 C.ar      1 <0>        -0.0579
      5 C5          5.0850   -2.5377    3.0579 C.ar      1 <0>        -0.1010
      6 C6          5.6308   -3.2365    4.1157 C.ar      1 <0>        -0.1152
      7 C7          5.1727   -1.7408    0.6962 C.2       1 <0>         0.2006
      8 C8          3.8209   -1.7593    0.2939 C.2       1 <0>        -0.4060
      9 C9          3.6939   -0.9446   -0.7839 C.2       1 <0>         0.4218
     10 O1          4.9037   -0.4286   -1.0599 O.3       1 <0>        -0.0910
     11 N1          5.8246   -0.9380   -0.1127 N.2       1 <0>        -0.2848
     12 N2          2.5246   -0.6902   -1.4770 N.pl3     1 <0>        -0.5840
     13 C10         1.1837   -1.1576   -1.0960 C.3       1 <0>         0.1118
     14 C11         0.2001   -0.6556   -2.1740 C.3       1 <0>        -0.1345
     15 C12         1.1208   -0.4147   -3.3994 C.3       1 <0>        -0.1337
     16 C13         2.4152    0.1000   -2.7168 C.3       1 <0>         0.0947
     17 C14         2.7130   -2.5458    0.9457 C.3       1 <0>         0.0760
     18 N3          2.5101   -3.8039    0.2150 N.4       1 <0>        -0.3814
     19 C15         3.6988   -4.6540    0.3643 C.3       1 <0>         0.0250
     20 C16         3.5761   -5.8689   -0.5576 C.3       1 <0>        -0.2163
     21 C17         3.5365   -7.2513    0.0968 C.3       1 <0>        -0.1744
     22 C18         4.7852   -6.8004   -0.6635 C.3       1 <0>        -0.1448
     23 C19         1.3374   -4.5022    0.7584 C.3       1 <0>        -0.0460
     24 C20         0.8744   -5.5701   -0.2346 C.3       1 <0>         0.0636
     25 H1          1.6610   -6.3139   -0.3613 H         1 <0>         0.1589
     26 C21        -0.3886   -6.2493    0.2990 C.3       1 <0>         0.0322
     27 O2         -0.7547   -7.3236   -0.5693 O.3       1 <0>        -0.3013
     28 C22        -1.8632   -8.0357   -0.2361 C.ar      1 <0>         0.1178
     29 C23        -2.5870   -7.7036    0.8999 C.ar      1 <0>        -0.2096
     30 C24        -3.7138   -8.4287    1.2361 C.ar      1 <0>        -0.0798
     31 C25        -4.1201   -9.4849    0.4418 C.ar      1 <0>        -0.1482
     32 C26        -3.4002   -9.8183   -0.6907 C.ar      1 <0>        -0.0766
     33 C27        -2.2762   -9.0924   -1.0346 C.ar      1 <0>        -0.1454
     34 O3          0.5901   -4.9581   -1.4942 O.3       1 <0>        -0.5420
     35 H2          7.2615   -4.4401    4.7939 H         1 <0>         0.1344
     36 H3          8.4529   -4.3612    2.6428 H         1 <0>         0.1364
     37 H4          7.4956   -3.1195    0.7468 H         1 <0>         0.1322
     38 H5          4.1408   -2.0270    3.1766 H         1 <0>         0.1277
     39 H6          5.1126   -3.2728    5.0625 H         1 <0>         0.1352
     40 H7          1.1678   -2.2468   -1.0580 H         1 <0>         0.0505
     41 H8          0.9101   -0.7466   -0.1243 H         1 <0>         0.0858
     42 H9         -0.5482   -1.4161   -2.3974 H         1 <0>         0.0981
     43 H10        -0.2750    0.2737   -1.8599 H         1 <0>         0.0930
     44 H11         1.3029   -1.3436   -3.9399 H         1 <0>         0.0857
     45 H12         0.7013    0.3441   -4.0601 H         1 <0>         0.1017
     46 H13         2.3278    1.1612   -2.4838 H         1 <0>         0.0868
     47 H14         3.2784   -0.0786   -3.3579 H         1 <0>         0.0911
     48 H15         2.9823   -2.7651    1.9789 H         1 <0>         0.1411
     49 H16         1.7928   -1.9619    0.9262 H         1 <0>         0.1324
     50 H17         4.5889   -4.0841    0.0978 H         1 <0>         0.1325
     51 H18         3.7782   -4.9893    1.3985 H         1 <0>         0.1302
     52 H19         2.9759   -5.7192   -1.4551 H         1 <0>         0.1346
     53 H20         3.5978   -7.2953    1.1842 H         1 <0>         0.1074
     54 H21         2.9100   -8.0113   -0.3700 H         1 <0>         0.1134
     55 H22         4.9803   -7.2638   -1.6306 H         1 <0>         0.1127
     56 H23         5.6681   -6.5477   -0.0764 H         1 <0>         0.1074
     57 H24         1.6022   -4.9755    1.7039 H         1 <0>         0.1462
     58 H25         0.5324   -3.7861    0.9234 H         1 <0>         0.1345
     59 H26        -0.1967   -6.6392    1.2986 H         1 <0>         0.0806
     60 H27        -1.2009   -5.5237    0.3417 H         1 <0>         0.0735
     61 H28        -2.2697   -6.8790    1.5210 H         1 <0>         0.1233
     62 H29        -4.2776   -8.1705    2.1203 H         1 <0>         0.1281
     63 H30        -5.0010  -10.0508    0.7065 H         1 <0>         0.1291
     64 H31        -3.7193  -10.6440   -1.3093 H         1 <0>         0.1345
     65 H32        -1.7168   -9.3503   -1.9216 H         1 <0>         0.1324
     66 H33        -0.1022   -4.2840   -1.4567 H         1 <0>         0.3831
     67 H34         2.3598   -3.6046   -0.7626 H         1 <0>         0.4203
@<TRIPOS>BOND
     1    1    6 ar
     2    1    2 ar
     3    1   35 1
     4    2    3 ar
     5    2   36 1
     6    3    4 ar
     7    3   37 1
     8    4    5 ar
     9    4    7 1
    10    5    6 ar
    11    5   38 1
    12    6   39 1
    13    7   11 2
    14    7    8 1
    15    8    9 2
    16    8   17 1
    17    9   10 1
    18    9   12 1
    19   10   11 1
    20   12   16 1
    21   12   13 1
    22   13   14 1
    23   13   40 1
    24   13   41 1
    25   14   15 1
    26   14   42 1
    27   14   43 1
    28   15   16 1
    29   15   44 1
    30   15   45 1
    31   16   46 1
    32   16   47 1
    33   17   18 1
    34   17   48 1
    35   17   49 1
    36   18   19 1
    37   18   23 1
    38   18   67 1
    39   19   20 1
    40   19   50 1
    41   19   51 1
    42   20   22 1
    43   20   21 1
    44   20   52 1
    45   21   22 1
    46   21   53 1
    47   21   54 1
    48   22   55 1
    49   22   56 1
    50   23   24 1
    51   23   57 1
    52   23   58 1
    53   24   25 1
    54   24   26 1
    55   24   34 1
    56   26   27 1
    57   26   59 1
    58   26   60 1
    59   27   28 1
    60   28   33 ar
    61   28   29 ar
    62   29   30 ar
    63   29   61 1
    64   30   31 ar
    65   30   62 1
    66   31   32 ar
    67   31   63 1
    68   32   33 ar
    69   32   64 1
    70   33   65 1
    71   34   66 1
@<TRIPOS>MOLECULE
ZINC38885738
   66    69     0     0     0
SMALL
USER_CHARGES

@<TRIPOS>ATOM
      1 C1         -0.0184    1.5028    0.0103 C.3       1 <0>        -0.1233
      2 C2          0.0021   -0.0041    0.0020 C.ar      1 <0>        -0.0649
      3 C3          0.0057   -0.6888   -1.1991 C.ar      1 <0>        -0.1215
      4 C4          0.0245   -2.0707   -1.2067 C.ar      1 <0>        -0.1057
      5 C5          0.0400   -2.7685   -0.0132 C.ar      1 <0>        -0.1255
      6 C6          0.0373   -2.0840    1.1875 C.ar      1 <0>        -0.0960
      7 C7          0.0229   -0.7015    1.1951 C.ar      1 <0>        -0.0840
      8 C8          0.0252    0.0449    2.5043 C.3       1 <0>        -0.0428
      9 S1         -1.6839    0.3212    3.0458 S.3       1 <0>        -0.2429
     10 C9         -1.5081    1.2180    4.6129 C.3       1 <0>        -0.0937
     11 C10        -2.8942    1.5187    5.1866 C.3       1 <0>        -0.1151
     12 C11        -2.7460    2.2751    6.5083 C.3       1 <0>         0.1211
     13 N1         -4.0732    2.5631    7.0576 N.am      1 <0>        -0.7169
     14 C12        -4.1899    3.2264    8.2250 C.2       1 <0>         0.5246
     15 O1         -3.1962    3.5849    8.8208 O.2       1 <0>        -0.5276
     16 C13        -5.5552    3.5227    8.7901 C.3       1 <0>        -0.1312
     17 H1         -6.0876    2.5877    8.9646 H         1 <0>         0.1243
     18 C14        -6.3436    4.3826    7.7981 C.3       1 <0>        -0.1314
     19 C15        -7.6984    4.7431    8.4145 C.3       1 <0>        -0.1397
     20 C16        -7.4717    5.4573    9.7487 C.3       1 <0>        -0.0205
     21 N2         -6.7366    4.5740   10.6619 N.4       1 <0>        -0.3839
     22 C17        -5.4080    4.2810   10.1110 C.3       1 <0>         0.0111
     23 C18        -6.5895    5.2336   11.9662 C.3       1 <0>         0.0962
     24 C19        -7.9478    5.4150   12.5933 C.2       1 <0>         0.2207
     25 N3         -8.5420    4.5651   13.3814 N.2       1 <0>        -0.4845
     26 C20        -9.7404    5.0461   13.7578 C.2       1 <0>         0.3104
     27 N4         -9.9137    6.2198   13.2022 N.2       1 <0>        -0.2929
     28 O2         -8.7451    6.4800   12.4389 O.3       1 <0>        -0.0861
     29 C21       -10.7059    4.3609   14.6529 C.ar      1 <0>        -0.0638
     30 C22       -10.3994    3.1106   15.1858 C.ar      1 <0>        -0.0621
     31 C23       -11.3010    2.4779   16.0175 C.ar      1 <0>        -0.1234
     32 C24       -12.5071    3.0827   16.3220 C.ar      1 <0>        -0.0772
     33 C25       -12.8165    4.3239   15.7958 C.ar      1 <0>        -0.1201
     34 C26       -11.9196    4.9683   14.9679 C.ar      1 <0>        -0.0703
     35 H2          1.0042    1.8801    0.0026 H         1 <0>         0.0716
     36 H3         -0.5455    1.8639   -0.8728 H         1 <0>         0.0701
     37 H4         -0.5286    1.8543    0.9071 H         1 <0>         0.0723
     38 H5         -0.0064   -0.1437   -2.1314 H         1 <0>         0.1255
     39 H6          0.0266   -2.6056   -2.1449 H         1 <0>         0.1255
     40 H7          0.0540   -3.8484   -0.0191 H         1 <0>         0.1256
     41 H8          0.0491   -2.6290    2.1199 H         1 <0>         0.1236
     42 H9          0.5542   -0.5412    3.2558 H         1 <0>         0.0905
     43 H10         0.5249    1.0049    2.3743 H         1 <0>         0.0931
     44 H11        -0.9469    0.6072    5.3200 H         1 <0>         0.0858
     45 H12        -0.9762    2.1533    4.4386 H         1 <0>         0.0857
     46 H13        -3.4554    2.1295    4.4794 H         1 <0>         0.0819
     47 H14        -3.4261    0.5834    5.3609 H         1 <0>         0.0820
     48 H15        -2.1848    1.6643    7.2155 H         1 <0>         0.0776
     49 H16        -2.2141    3.2104    6.3340 H         1 <0>         0.0777
     50 H17        -4.8680    2.2763    6.5812 H         1 <0>         0.4059
     51 H18        -5.7866    5.2946    7.5834 H         1 <0>         0.0934
     52 H19        -6.5001    3.8239    6.8754 H         1 <0>         0.1024
     53 H20        -8.2428    5.4012    7.7373 H         1 <0>         0.1228
     54 H21        -8.2757    3.8338    8.5818 H         1 <0>         0.0925
     55 H22        -6.8946    6.3665    9.5802 H         1 <0>         0.1420
     56 H23        -8.4343    5.7155   10.1902 H         1 <0>         0.1292
     57 H24        -4.8472    3.6710   10.8191 H         1 <0>         0.1480
     58 H25        -4.8745    5.2153    9.9355 H         1 <0>         0.1466
     59 H26        -5.9684    4.6179   12.6167 H         1 <0>         0.1801
     60 H27        -6.1192    6.2074   11.8300 H         1 <0>         0.1719
     61 H28        -9.4582    2.6372   14.9481 H         1 <0>         0.1375
     62 H29       -11.0644    1.5087   16.4311 H         1 <0>         0.1384
     63 H30       -13.2100    2.5838   16.9727 H         1 <0>         0.1370
     64 H31       -13.7598    4.7915   16.0365 H         1 <0>         0.1390
     65 H32       -12.1601    5.9395   14.5614 H         1 <0>         0.1336
     66 H33        -7.2479    3.7121   10.7789 H         1 <0>         0.4297
@<TRIPOS>BOND
     1    1    2 1
     2    1   35 1
     3    1   36 1
     4    1   37 1
     5    2    7 ar
     6    2    3 ar
     7    3    4 ar
     8    3   38 1
     9    4    5 ar
    10    4   39 1
    11    5    6 ar
    12    5   40 1
    13    6    7 ar
    14    6   41 1
    15    7    8 1
    16    8    9 1
    17    8   42 1
    18    8   43 1
    19    9   10 1
    20   10   11 1
    21   10   44 1
    22   10   45 1
    23   11   12 1
    24   11   46 1
    25   11   47 1
    26   12   13 1
    27   12   48 1
    28   12   49 1
    29   13   14 am
    30   13   50 1
    31   14   15 2
    32   14   16 1
    33   16   17 1
    34   16   22 1
    35   16   18 1
    36   18   19 1
    37   18   51 1
    38   18   52 1
    39   19   20 1
    40   19   53 1
    41   19   54 1
    42   20   21 1
    43   20   55 1
    44   20   56 1
    45   21   22 1
    46   21   23 1
    47   21   66 1
    48   22   57 1
    49   22   58 1
    50   23   24 1
    51   23   59 1
    52   23   60 1
    53   24   28 1
    54   24   25 2
    55   25   26 1
    56   26   27 2
    57   26   29 1
    58   27   28 1
    59   29   34 ar
    60   29   30 ar
    61   30   31 ar
    62   30   61 1
    63   31   32 ar
    64   31   62 1
    65   32   33 ar
    66   32   63 1
    67   33   34 ar
    68   33   64 1
    69   34   65 1
@<TRIPOS>MOLECULE
ZINC58970240
   54    56     0     0     0
SMALL
USER_CHARGES

@<TRIPOS>ATOM
      1 C1         -0.0167    1.3791    0.0096 C.ar      1 <0>        -0.0891
      2 C2          1.1686    2.0922    0.0021 C.ar      1 <0>        -0.1260
      3 C3          2.3774    1.4265   -0.0135 C.ar      1 <0>        -0.0633
      4 C4          2.4024    0.0329   -0.0212 C.ar      1 <0>        -0.0761
      5 C5          1.2050   -0.6804   -0.0131 C.ar      1 <0>        -0.0847
      6 C6          0.0021   -0.0041    0.0020 C.ar      1 <0>        -0.1233
      7 C7          3.6982   -0.6882   -0.0385 C.ar      1 <0>         0.2587
      8 C8          3.7325   -2.0854   -0.0521 C.ar      1 <0>        -0.1863
      9 C9          4.9646   -2.7145   -0.0679 C.ar      1 <0>         0.1109
     10 N1          6.0664   -1.9810   -0.0697 N.ar      1 <0>        -0.5014
     11 C10         6.0044   -0.6568   -0.0565 C.ar      1 <0>         0.3122
     12 N2          4.8460   -0.0148   -0.0467 N.ar      1 <0>        -0.4775
     13 S1          7.5012    0.2728   -0.0589 S.3       1 <0>         0.0319
     14 C11         8.8025   -0.9908   -0.0808 C.3       1 <0>        -0.1164
     15 C12        10.1733   -0.3112   -0.0847 C.3       1 <0>        -0.0919
     16 C13        11.2709   -1.3770   -0.1032 C.3       1 <0>        -0.1339
     17 C14        12.6210   -0.7076   -0.1070 C.2       1 <0>         0.5172
     18 O1         12.6978    0.5028   -0.0959 O.2       1 <0>        -0.5262
     19 N3         13.7432   -1.4539   -0.1226 N.am      1 <0>        -0.7388
     20 C15        15.0557   -0.8032   -0.1263 C.3       1 <0>         0.1209
     21 C16        16.1533   -1.8689   -0.1448 C.3       1 <0>        -0.1540
     22 C17        17.5241   -1.1893   -0.1486 C.3       1 <0>         0.0949
     23 N4         18.5750   -2.2098   -0.1664 N.pl3     1 <0>        -0.4087
     24 C18        19.1618   -2.7905    0.9255 C.2       1 <0>         0.0255
     25 C19        20.0698   -3.6688    0.4589 C.2       1 <0>         0.0046
     26 N5         20.0382   -3.6256   -0.8813 N.pl3     1 <0>        -0.4760
     27 C20        19.1417   -2.7575   -1.2630 C.cat     1 <0>         0.2888
     28 C21         5.0514   -4.2190   -0.0825 C.3       1 <0>         0.5273
     29 F1          5.0675   -4.6723   -1.4059 F         1 <0>        -0.1631
     30 F2          6.2239   -4.6248    0.5637 F         1 <0>        -0.1602
     31 F3          3.9432   -4.7564    0.5810 F         1 <0>        -0.1623
     32 H1         -0.9603    1.9042    0.0260 H         1 <0>         0.1308
     33 H2          1.1480    3.1720    0.0081 H         1 <0>         0.1325
     34 H3          3.3022    1.9842   -0.0200 H         1 <0>         0.1384
     35 H4          1.2184   -1.7603   -0.0194 H         1 <0>         0.1299
     36 H5         -0.9264   -0.5557    0.0083 H         1 <0>         0.1333
     37 H6          2.8184   -2.6606   -0.0500 H         1 <0>         0.1663
     38 H7          8.7119   -1.6211    0.8039 H         1 <0>         0.0990
     39 H8          8.6985   -1.6040   -0.9760 H         1 <0>         0.0982
     40 H9         10.2639    0.3191   -0.9693 H         1 <0>         0.0849
     41 H10        10.2773    0.3020    0.8105 H         1 <0>         0.0851
     42 H11        11.1803   -2.0072    0.7815 H         1 <0>         0.1016
     43 H12        11.1668   -1.9901   -0.9983 H         1 <0>         0.1013
     44 H13        13.6817   -2.4219   -0.1314 H         1 <0>         0.4036
     45 H14        15.1463   -0.1729   -1.0110 H         1 <0>         0.0775
     46 H15        15.1597   -0.1900    0.7689 H         1 <0>         0.0777
     47 H16        16.0627   -2.4992    0.7399 H         1 <0>         0.0888
     48 H17        16.0493   -2.4821   -1.0399 H         1 <0>         0.0867
     49 H18        17.6147   -0.5590   -1.0333 H         1 <0>         0.1270
     50 H19        17.6281   -0.5761    0.7465 H         1 <0>         0.1296
     51 H20        18.9397   -2.5837    1.9620 H         1 <0>         0.2234
     52 H21        20.7110   -4.2977    1.0587 H         1 <0>         0.2243
     53 H22        18.8955   -2.5154   -2.2863 H         1 <0>         0.2602
     54 H23        20.5919   -4.1583   -1.4735 H         1 <0>         0.4659
@<TRIPOS>BOND
     1    1    6 ar
     2    1    2 ar
     3    1   32 1
     4    2    3 ar
     5    2   33 1
     6    3    4 ar
     7    3   34 1
     8    4    5 ar
     9    4    7 1
    10    5    6 ar
    11    5   35 1
    12    6   36 1
    13    7   12 ar
    14    7    8 ar
    15    8    9 ar
    16    8   37 1
    17    9   10 ar
    18    9   28 1
    19   10   11 ar
    20   11   12 ar
    21   11   13 1
    22   13   14 1
    23   14   15 1
    24   14   38 1
    25   14   39 1
    26   15   16 1
    27   15   40 1
    28   15   41 1
    29   16   17 1
    30   16   42 1
    31   16   43 1
    32   17   18 2
    33   17   19 am
    34   19   20 1
    35   19   44 1
    36   20   21 1
    37   20   45 1
    38   20   46 1
    39   21   22 1
    40   21   47 1
    41   21   48 1
    42   22   23 1
    43   22   49 1
    44   22   50 1
    45   23   27 1
    46   23   24 1
    47   24   25 2
    48   24   51 1
    49   25   26 1
    50   25   52 1
    51   26   27 2
    52   26   54 1
    53   27   53 1
    54   28   29 1
    55   28   30 1
    56   28   31 1
@<TRIPOS>MOLECULE
ZINC12209364
   48    50     0     0     0
SMALL
USER_CHARGES
N-[[4-allyl-5-[(3-fluorophenyl)methylsulfanyl]-1,2,4-triazol-3-yl]methyl]-1-(3-furyl)-N-methyl-methanamine
@<TRIPOS>ATOM
      1 C1         -0.6172    3.3296    2.0902 C.3       1 <0>        -0.0437
      2 C2         -2.9506    3.1657    1.4651 C.3       1 <0>         0.0815
      3 C3         -3.4272    3.2120    2.8940 C.2       1 <0>        -0.2588
      4 C4         -3.1909    4.2468    3.8279 C.2       1 <0>        -0.2070
      5 C5         -3.7932    3.8824    4.9741 C.2       1 <0>        -0.0075
      6 O1         -4.3784    2.6884    4.7850 O.3       1 <0>        -0.1583
      7 C6         -4.1640    2.2794    3.5239 C.2       1 <0>         0.0210
      8 C7         -1.2424    2.2398    0.0204 C.3       1 <0>         0.1019
      9 C8         -0.0165    1.3634    0.0095 C.2       1 <0>         0.0930
     10 N1          1.2220    1.7681   -0.0001 N.2       1 <0>        -0.2259
     11 N2          2.0163    0.7578   -0.0131 N.2       1 <0>        -0.2802
     12 C9          1.3213   -0.3559   -0.0125 C.2       1 <0>         0.1932
     13 N3          0.0021   -0.0041    0.0020 N.pl3     1 <0>        -0.4501
     14 C10        -1.1536   -0.9044    0.0082 C.3       1 <0>         0.1293
     15 C11        -1.5634   -1.2055   -1.4104 C.2       1 <0>        -0.2184
     16 C12        -1.6523   -2.4477   -1.8169 C.2       1 <0>        -0.1174
     17 S1          1.9684   -1.9948   -0.0269 S.3       1 <0>         0.0382
     18 C13         3.7416   -1.6324   -0.0422 C.3       1 <0>        -0.0632
     19 C14         4.5182   -2.9238   -0.0562 C.ar      1 <0>        -0.0666
     20 C15         4.8627   -3.5100   -1.2601 C.ar      1 <0>        -0.1073
     21 C16         5.5750   -4.6945   -1.2745 C.ar      1 <0>        -0.0861
     22 C17         5.9436   -5.2944   -0.0850 C.ar      1 <0>        -0.1375
     23 C18         5.5992   -4.7084    1.1210 C.ar      1 <0>         0.1032
     24 C19         4.8905   -3.5187    1.1341 C.ar      1 <0>        -0.1338
     25 F1          5.9593   -5.2936    2.2842 F         1 <0>        -0.1329
     26 H1         -0.4976    4.2772    1.5649 H         1 <0>         0.1305
     27 H2         -0.9321    3.5202    3.1162 H         1 <0>         0.1247
     28 H3          0.3324    2.7945    2.0950 H         1 <0>         0.1200
     29 H4         -2.8727    4.1805    1.0750 H         1 <0>         0.1454
     30 H5         -3.6609    2.5987    0.8634 H         1 <0>         0.1366
     31 H6         -2.6333    5.1554    3.6544 H         1 <0>         0.1615
     32 H7         -3.8040    4.4529    5.8910 H         1 <0>         0.2153
     33 H8         -4.5206    1.3569    3.0898 H         1 <0>         0.2108
     34 H9         -1.0229    3.1779   -0.4894 H         1 <0>         0.1672
     35 H10        -2.0581    1.7299   -0.4922 H         1 <0>         0.1461
     36 H11        -0.8884   -1.8325    0.5146 H         1 <0>         0.1147
     37 H12        -1.9822   -0.4285    0.5325 H         1 <0>         0.1001
     38 H13        -1.7838   -0.3973   -2.0919 H         1 <0>         0.1208
     39 H14        -1.4319   -3.2560   -1.1353 H         1 <0>         0.1086
     40 H15        -1.9460   -2.6635   -2.8335 H         1 <0>         0.1172
     41 H16         3.9862   -1.0517   -0.9317 H         1 <0>         0.1162
     42 H17         4.0033   -1.0607    0.8482 H         1 <0>         0.1136
     43 H18         4.5754   -3.0418   -2.1900 H         1 <0>         0.1352
     44 H19         5.8439   -5.1513   -2.2154 H         1 <0>         0.1414
     45 H20         6.5004   -6.2197   -0.0965 H         1 <0>         0.1426
     46 H21         4.6251   -3.0583    2.0743 H         1 <0>         0.1395
     47 N4         -1.6357    2.4920    1.4227 N.4       1 <0>        -0.3967
     48 H22        -1.7049    1.5943    1.9163 H         1 <0>         0.4225
@<TRIPOS>BOND
     1    1   26 1
     2    1   27 1
     3    1   28 1
     4    1   47 1
     5    2    3 1
     6    2   29 1
     7    2   30 1
     8    2   47 1
     9    3    7 2
    10    3    4 1
    11    4    5 2
    12    4   31 1
    13    5    6 1
    14    5   32 1
    15    6    7 1
    16    7   33 1
    17    8    9 1
    18    8   34 1
    19    8   35 1
    20    8   47 1
    21    9   13 1
    22    9   10 2
    23   10   11 1
    24   11   12 2
    25   12   13 1
    26   12   17 1
    27   13   14 1
    28   14   15 1
    29   14   36 1
    30   14   37 1
    31   15   16 2
    32   15   38 1
    33   16   39 1
    34   16   40 1
    35   17   18 1
    36   18   19 1
    37   18   41 1
    38   18   42 1
    39   19   24 ar
    40   19   20 ar
    41   20   21 ar
    42   20   43 1
    43   21   22 ar
    44   21   44 1
    45   22   23 ar
    46   22   45 1
    47   23   24 ar
    48   23   25 1
    49   24   46 1
    50   47   48 1
@<TRIPOS>MOLECULE
ZINC19593286
   56    59     0     0     0
SMALL
USER_CHARGES
(4S)-N-(3-methoxypropyl)-N-[[2-(4-pyridyl)pyrimidin-4-yl]methyl]chroman-4-amine
@<TRIPOS>ATOM
      1 C1          5.7672    8.1136   -5.1246 C.3       1 <0>         0.0268
      2 O1          4.7150    7.2334   -4.7243 O.3       1 <0>        -0.3885
      3 C2          4.8898    6.6735   -3.4212 C.3       1 <0>         0.0627
      4 C3          3.7110    5.7527   -3.0995 C.3       1 <0>        -0.1512
      5 C4          3.8343    5.2506   -1.6595 C.3       1 <0>        -0.0068
      6 N1          2.7651    4.2812   -1.3857 N.4       1 <0>        -0.3971
      7 C5          2.6080    4.0647    0.0587 C.3       1 <0>         0.0422
      8 C6          1.2884    3.3871    0.3245 C.ar      1 <0>         0.1262
      9 C7          1.2246    2.0097    0.4771 C.ar      1 <0>        -0.1902
     10 C8         -0.0098    1.4263    0.7200 C.ar      1 <0>         0.1716
     11 N2         -1.0830    2.1947    0.7935 N.ar      1 <0>        -0.4758
     12 C9         -0.9868    3.5086    0.6479 C.ar      1 <0>         0.3782
     13 N3          0.1777    4.0978    0.4147 N.ar      1 <0>        -0.4945
     14 C10        -2.2129    4.3395    0.7421 C.ar      1 <0>        -0.0155
     15 C11        -2.1522    5.7277    0.5943 C.ar      1 <0>        -0.1286
     16 C12        -3.3176    6.4623    0.6846 C.ar      1 <0>         0.0973
     17 N4         -4.4738    5.8718    0.9167 N.ar      1 <0>        -0.4642
     18 C13        -4.5737    4.5655    1.0672 C.ar      1 <0>         0.1010
     19 C14        -3.4585    3.7556    0.9867 C.ar      1 <0>        -0.1217
     20 C15         3.0128    3.0129   -2.0842 C.3       1 <0>         0.0823
     21 H1          3.3872    3.2515   -3.0906 H         1 <0>         0.1509
     22 C16         4.0400    2.1919   -1.3006 C.3       1 <0>        -0.1923
     23 C17         4.0614    0.7705   -1.8771 C.3       1 <0>         0.0651
     24 O2          2.7890    0.1678   -1.6365 O.3       1 <0>        -0.3012
     25 C18         1.6783    0.8751   -1.9705 C.ar      1 <0>         0.1661
     26 C19         1.7228    2.2403   -2.1942 C.ar      1 <0>        -0.2149
     27 C20         0.5645    2.9218   -2.5276 C.ar      1 <0>        -0.0902
     28 C21        -0.6347    2.2451   -2.6405 C.ar      1 <0>        -0.1311
     29 C22        -0.6816    0.8811   -2.4204 C.ar      1 <0>        -0.0513
     30 C23         0.4694    0.1968   -2.0865 C.ar      1 <0>        -0.1401
     31 H2          5.5583    8.4998   -6.1332 H         1 <0>         0.0974
     32 H3          6.7209    7.5654   -5.1321 H         1 <0>         0.0486
     33 H4          5.8323    8.9530   -4.4167 H         1 <0>         0.0493
     34 H5          5.8251    6.0953   -3.3930 H         1 <0>         0.0607
     35 H6          4.9365    7.4828   -2.6776 H         1 <0>         0.0621
     36 H7          2.7691    6.3091   -3.2144 H         1 <0>         0.0998
     37 H8          3.7168    4.8953   -3.7886 H         1 <0>         0.0935
     38 H9          4.8124    4.7662   -1.5226 H         1 <0>         0.1346
     39 H10         3.7456    6.0999   -0.9661 H         1 <0>         0.1420
     40 H11         3.4272    3.4287    0.4253 H         1 <0>         0.1540
     41 H12         2.6344    5.0332    0.5797 H         1 <0>         0.1556
     42 H13         2.1168    1.4050    0.4085 H         1 <0>         0.1537
     43 H14        -0.0941    0.3566    0.8432 H         1 <0>         0.1806
     44 H15        -1.2082    6.2182    0.4083 H         1 <0>         0.1439
     45 H16        -3.2814    7.5354    0.5681 H         1 <0>         0.1641
     46 H17        -5.5407    4.1234    1.2563 H         1 <0>         0.1667
     47 H18        -3.5476    2.6865    1.1113 H         1 <0>         0.1505
     48 H19         5.0329    2.6547   -1.4010 H         1 <0>         0.1159
     49 H20         3.7542    2.1640   -0.2388 H         1 <0>         0.1059
     50 H21         4.2579    0.8163   -2.9584 H         1 <0>         0.0834
     51 H22         4.8535    0.1871   -1.3849 H         1 <0>         0.1349
     52 H23         0.5985    3.9874   -2.6998 H         1 <0>         0.1182
     53 H24        -1.5352    2.7817   -2.9002 H         1 <0>         0.1345
     54 H25        -1.6186    0.3514   -2.5094 H         1 <0>         0.1437
     55 H26         0.4315   -0.8688   -1.9150 H         1 <0>         0.1473
     56 H27         1.8230    4.6999   -1.7692 H         1 <0>         0.4437
@<TRIPOS>BOND
     1    1    2 1
     2    1   31 1
     3    1   32 1
     4    1   33 1
     5    2    3 1
     6    3    4 1
     7    3   34 1
     8    3   35 1
     9    4    5 1
    10    4   36 1
    11    4   37 1
    12    5    6 1
    13    5   38 1
    14    5   39 1
    15    6    7 1
    16    6   20 1
    17    6   56 1
    18    7    8 1
    19    7   40 1
    20    7   41 1
    21    8   13 ar
    22    8    9 ar
    23    9   10 ar
    24    9   42 1
    25   10   11 ar
    26   10   43 1
    27   11   12 ar
    28   12   13 ar
    29   12   14 1
    30   14   19 ar
    31   14   15 ar
    32   15   16 ar
    33   15   44 1
    34   16   17 ar
    35   16   45 1
    36   17   18 ar
    37   18   19 ar
    38   18   46 1
    39   19   47 1
    40   20   21 1
    41   20   26 1
    42   20   22 1
    43   22   23 1
    44   22   48 1
    45   22   49 1
    46   23   24 1
    47   23   50 1
    48   23   51 1
    49   24   25 1
    50   25   30 ar
    51   25   26 ar
    52   26   27 ar
    53   27   28 ar
    54   27   52 1
    55   28   29 ar
    56   28   53 1
    57   29   30 ar
    58   29   54 1
    59   30   55 1
@<TRIPOS>MOLECULE
ZINC39359947
   66    68     0     0     0
SMALL
USER_CHARGES

@<TRIPOS>ATOM
      1 C1         -0.0160    1.2933    1.2787 C.3       1 <0>        -0.1504
      2 C2         -0.0169   -0.2174    1.0370 C.3       1 <0>        -0.0881
      3 C3          0.5321   -0.9321    2.2735 C.3       1 <0>        -0.1575
      4 C4         -1.4470   -0.6900    0.7678 C.3       1 <0>        -0.1485
      5 C5         -1.4332   -2.1537    0.4091 C.2       1 <0>         0.3481
      6 O1         -0.3873   -2.7567    0.3726 O.2       1 <0>        -0.4053
      7 C6         -2.7106   -2.8573    0.0993 C.2       1 <0>         0.4727
      8 O2         -3.7706   -2.2872    0.2552 O.2       1 <0>        -0.5066
      9 N1         -2.6881   -4.1264   -0.3537 N.am      1 <0>        -0.5800
     10 C7         -1.4144   -4.8412   -0.4673 C.3       1 <0>         0.0871
     11 C8         -1.0377   -5.4314    0.8931 C.3       1 <0>         0.0702
     12 H1         -1.0369   -4.6463    1.6492 H         1 <0>         0.0804
     13 C9          0.3597   -6.0826    0.8128 C.3       1 <0>        -0.1444
     14 C10         0.1795   -7.3578    1.6807 C.3       1 <0>        -0.1582
     15 C11        -1.2960   -7.7169    1.3731 C.3       1 <0>         0.0485
     16 O3         -1.9735   -6.4537    1.2552 O.3       1 <0>        -0.3792
     17 C12        -3.9374   -4.7911   -0.7327 C.3       1 <0>         0.1161
     18 C13        -4.2207   -4.5378   -2.2147 C.3       1 <0>        -0.1168
     19 C14        -4.4826   -3.0457   -2.4383 C.3       1 <0>        -0.1380
     20 C15        -4.8431   -2.8111   -3.9068 C.3       1 <0>        -0.0057
     21 N2         -6.0480   -3.5773   -4.2471 N.4       1 <0>        -0.3830
     22 C16        -5.7819   -5.0136   -4.1038 C.3       1 <0>        -0.0077
     23 C17        -5.4575   -5.3329   -2.6429 C.3       1 <0>        -0.1380
     24 C18        -6.4347   -3.2884   -5.6345 C.3       1 <0>         0.0455
     25 C19        -7.7382   -3.9772   -5.9465 C.ar      1 <0>        -0.1936
     26 C20        -7.7397   -5.1724   -6.6407 C.ar      1 <0>        -0.0659
     27 C21        -8.9352   -5.8044   -6.9270 C.ar      1 <0>        -0.1215
     28 C22       -10.1307   -5.2420   -6.5194 C.ar      1 <0>        -0.0554
     29 C23       -10.1317   -4.0475   -5.8249 C.ar      1 <0>        -0.1450
     30 C24        -8.9343   -3.4160   -5.5329 C.ar      1 <0>         0.1189
     31 F1         -8.9337   -2.2505   -4.8498 F         1 <0>        -0.1322
     32 H2          1.0028    1.6300    1.4705 H         1 <0>         0.0625
     33 H3         -0.4071    1.8024    0.3978 H         1 <0>         0.0563
     34 H4         -0.6431    1.5239    2.1400 H         1 <0>         0.0588
     35 H5          0.6102   -0.4480    0.1758 H         1 <0>         0.0773
     36 H6          1.5509   -0.5954    2.4653 H         1 <0>         0.0603
     37 H7         -0.0950   -0.7015    3.1347 H         1 <0>         0.0538
     38 H8          0.5315   -2.0084    2.1013 H         1 <0>         0.0641
     39 H9         -2.0533   -0.5406    1.6612 H         1 <0>         0.1115
     40 H10        -1.8694   -0.1175   -0.0580 H         1 <0>         0.1062
     41 H11        -1.5125   -5.6447   -1.1973 H         1 <0>         0.0827
     42 H12        -0.6370   -4.1492   -0.7909 H         1 <0>         0.1179
     43 H13         0.6067   -6.3452   -0.2159 H         1 <0>         0.0789
     44 H14         1.1184   -5.4268    1.2397 H         1 <0>         0.0885
     45 H15         0.8527   -8.1516    1.3571 H         1 <0>         0.0873
     46 H16         0.3173   -7.1355    2.7389 H         1 <0>         0.0808
     47 H17        -1.3631   -8.2717    0.4372 H         1 <0>         0.0604
     48 H18        -1.7220   -8.2990    2.1902 H         1 <0>         0.0875
     49 H19        -3.8460   -5.8632   -0.5583 H         1 <0>         0.0984
     50 H20        -4.7566   -4.3940   -0.1332 H         1 <0>         0.0933
     51 H21        -3.3622   -4.8514   -2.8087 H         1 <0>         0.0911
     52 H22        -5.3084   -2.7221   -1.8047 H         1 <0>         0.0973
     53 H23        -3.5868   -2.4774   -2.1882 H         1 <0>         0.1047
     54 H24        -5.0301   -1.7496   -4.0695 H         1 <0>         0.1313
     55 H25        -4.0166   -3.1347   -4.5395 H         1 <0>         0.1283
     56 H26        -6.6618   -5.5782   -4.4120 H         1 <0>         0.1304
     57 H27        -4.9354   -5.2903   -4.7323 H         1 <0>         0.1295
     58 H28        -5.2585   -6.3996   -2.5390 H         1 <0>         0.1154
     59 H29        -6.3035   -5.0569   -2.0135 H         1 <0>         0.0914
     60 H30        -6.5527   -2.2123   -5.7623 H         1 <0>         0.1388
     61 H31        -5.6608   -3.6518   -6.3106 H         1 <0>         0.1416
     62 H32        -6.8065   -5.6124   -6.9599 H         1 <0>         0.1430
     63 H33        -8.9354   -6.7381   -7.4698 H         1 <0>         0.1448
     64 H34       -11.0642   -5.7364   -6.7443 H         1 <0>         0.1475
     65 H35       -11.0656   -3.6082   -5.5069 H         1 <0>         0.1498
     66 H36        -6.7997   -3.3122   -3.6284 H         1 <0>         0.4224
@<TRIPOS>BOND
     1    1    2 1
     2    1   32 1
     3    1   33 1
     4    1   34 1
     5    2    3 1
     6    2    4 1
     7    2   35 1
     8    3   36 1
     9    3   37 1
    10    3   38 1
    11    4    5 1
    12    4   39 1
    13    4   40 1
    14    5    6 2
    15    5    7 1
    16    7    8 2
    17    7    9 am
    18    9   10 1
    19    9   17 1
    20   10   11 1
    21   10   41 1
    22   10   42 1
    23   11   12 1
    24   11   16 1
    25   11   13 1
    26   13   14 1
    27   13   43 1
    28   13   44 1
    29   14   15 1
    30   14   45 1
    31   14   46 1
    32   15   16 1
    33   15   47 1
    34   15   48 1
    35   17   18 1
    36   17   49 1
    37   17   50 1
    38   18   23 1
    39   18   19 1
    40   18   51 1
    41   19   20 1
    42   19   52 1
    43   19   53 1
    44   20   21 1
    45   20   54 1
    46   20   55 1
    47   21   22 1
    48   21   24 1
    49   21   66 1
    50   22   23 1
    51   22   56 1
    52   22   57 1
    53   23   58 1
    54   23   59 1
    55   24   25 1
    56   24   60 1
    57   24   61 1
    58   25   30 ar
    59   25   26 ar
    60   26   27 ar
    61   26   62 1
    62   27   28 ar
    63   27   63 1
    64   28   29 ar
    65   28   64 1
    66   29   30 ar
    67   29   65 1
    68   30   31 1
@<TRIPOS>MOLECULE
ZINC56508262
   54    55     0     0     0
SMALL
USER_CHARGES

@<TRIPOS>ATOM
      1 C1         -0.0184    1.5028    0.0103 C.3       1 <0>        -0.1237
      2 C2          0.0021   -0.0041    0.0020 C.ar      1 <0>        -0.0809
      3 C3          0.0057   -0.6888   -1.1978 C.ar      1 <0>        -0.0927
      4 C4          0.0244   -2.0713   -1.2061 C.ar      1 <0>        -0.1528
      5 C5          0.0395   -2.7720   -0.0142 C.ar      1 <0>        -0.0878
      6 C6          0.0359   -2.0919    1.1883 C.ar      1 <0>        -0.0794
      7 C7          0.0230   -0.7047    1.1992 C.ar      1 <0>         0.1197
      8 O1          0.0255   -0.0333    2.3808 O.3       1 <0>        -0.3125
      9 C8         -1.2463    0.2703    2.9572 C.3       1 <0>         0.0171
     10 C9         -1.0431    1.0223    4.2740 C.3       1 <0>         0.4652
     11 F1         -0.3462    2.2106    4.0297 F         1 <0>        -0.1714
     12 F2         -2.2882    1.3196    4.8383 F         1 <0>        -0.1676
     13 F3         -0.3089    0.2245    5.1582 F         1 <0>        -0.1710
     14 C10         0.0523   -2.8562    2.4870 C.3       1 <0>        -0.1243
     15 C11         0.0279   -2.8157   -2.5164 C.3       1 <0>         0.0454
     16 N1          1.4138   -3.0388   -2.9491 N.4       1 <0>        -0.3883
     17 C12         2.0517   -1.7467   -3.2346 C.3       1 <0>        -0.0579
     18 C13         1.4207   -3.8669   -4.1625 C.3       1 <0>         0.1118
     19 C14         2.8424   -4.1982   -4.5365 C.2       1 <0>         0.0657
     20 N2          3.5215   -5.2373   -4.1412 N.2       1 <0>        -0.2200
     21 N3          4.6999   -5.1985   -4.6564 N.2       1 <0>        -0.2741
     22 C15         4.8127   -4.1334   -5.3980 C.2       1 <0>         0.2312
     23 O2          3.6404   -3.4791   -5.3437 O.3       1 <0>        -0.2113
     24 C16         6.0323   -3.7149   -6.1780 C.3       1 <0>         0.0228
     25 C17         6.3849   -4.8020   -7.1952 C.3       1 <0>        -0.1474
     26 C18         5.7432   -2.4040   -6.9120 C.3       1 <0>        -0.1522
     27 C19         7.2070   -3.5138   -5.2186 C.3       1 <0>        -0.1458
     28 H1          1.0042    1.8801    0.0026 H         1 <0>         0.0859
     29 H2         -0.5455    1.8639   -0.8728 H         1 <0>         0.0774
     30 H3         -0.5286    1.8543    0.9071 H         1 <0>         0.0744
     31 H4         -0.0064   -0.1438   -2.1301 H         1 <0>         0.1396
     32 H5          0.0538   -3.8518   -0.0233 H         1 <0>         0.1409
     33 H6         -1.8183    0.8920    2.2684 H         1 <0>         0.1064
     34 H7         -1.7893   -0.6554    3.1476 H         1 <0>         0.1066
     35 H8          1.0838   -3.0266    2.7953 H         1 <0>         0.0867
     36 H9         -0.4658   -2.2805    3.2539 H         1 <0>         0.0741
     37 H10        -0.4492   -3.8144    2.3510 H         1 <0>         0.0782
     38 H11        -0.4723   -3.7759   -2.3901 H         1 <0>         0.1460
     39 H12        -0.4978   -2.2284   -3.2693 H         1 <0>         0.1443
     40 H13         3.0801   -1.9122   -3.5557 H         1 <0>         0.1159
     41 H14         1.5017   -1.2368   -4.0256 H         1 <0>         0.1311
     42 H15         2.0466   -1.1322   -2.3343 H         1 <0>         0.1328
     43 H16         0.8698   -4.7888   -3.9762 H         1 <0>         0.1753
     44 H17         0.9483   -3.3199   -4.9784 H         1 <0>         0.1625
     45 H18         5.5480   -4.9452   -7.8787 H         1 <0>         0.0641
     46 H19         7.2671   -4.4992   -7.7594 H         1 <0>         0.0886
     47 H20         6.5909   -5.7359   -6.6723 H         1 <0>         0.0761
     48 H21         5.4920   -1.6295   -6.1873 H         1 <0>         0.0639
     49 H22         6.6253   -2.1013   -7.4762 H         1 <0>         0.0864
     50 H23         4.9063   -2.5472   -7.5955 H         1 <0>         0.0666
     51 H24         7.4130   -4.4477   -4.6956 H         1 <0>         0.0760
     52 H25         8.0892   -3.2111   -5.7827 H         1 <0>         0.0886
     53 H26         6.9558   -2.7394   -4.4938 H         1 <0>         0.0617
     54 H27         1.9230   -3.5108   -2.2169 H         1 <0>         0.4316
@<TRIPOS>BOND
     1    1    2 1
     2    1   28 1
     3    1   29 1
     4    1   30 1
     5    2    7 ar
     6    2    3 ar
     7    3    4 ar
     8    3   31 1
     9    4    5 ar
    10    4   15 1
    11    5    6 ar
    12    5   32 1
    13    6    7 ar
    14    6   14 1
    15    7    8 1
    16    8    9 1
    17    9   10 1
    18    9   33 1
    19    9   34 1
    20   10   11 1
    21   10   12 1
    22   10   13 1
    23   14   35 1
    24   14   36 1
    25   14   37 1
    26   15   16 1
    27   15   38 1
    28   15   39 1
    29   16   17 1
    30   16   18 1
    31   16   54 1
    32   17   40 1
    33   17   41 1
    34   17   42 1
    35   18   19 1
    36   18   43 1
    37   18   44 1
    38   19   23 1
    39   19   20 2
    40   20   21 1
    41   21   22 2
    42   22   23 1
    43   22   24 1
    44   24   25 1
    45   24   26 1
    46   24   27 1
    47   25   45 1
    48   25   46 1
    49   25   47 1
    50   26   48 1
    51   26   49 1
    52   26   50 1
    53   27   51 1
    54   27   52 1
    55   27   53 1
@<TRIPOS>MOLECULE
ZINC35511216
   51    53     0     0     0
SMALL
USER_CHARGES

@<TRIPOS>ATOM
      1 C1         -1.1527    1.4514   -0.1365 C.3       1 <0>        -0.0975
      2 C2         -0.6503    0.0308   -0.1550 C.2       1 <0>         0.1089
      3 C3         -0.7632   -0.8713   -1.2281 C.2       1 <0>        -0.2130
      4 C4         -0.1951   -2.0352   -0.8586 C.2       1 <0>         0.0004
      5 O1          0.2637   -1.8933    0.3943 O.3       1 <0>        -0.0799
      6 N1         -0.0306   -0.5745    0.8184 N.2       1 <0>        -0.2769
      7 C5         -0.0931   -3.2788   -1.7037 C.3       1 <0>         0.1099
      8 H1         -0.5774   -3.1136   -2.6661 H         1 <0>         0.1690
      9 C6          1.3900   -3.6472   -1.9187 C.3       1 <0>        -0.1364
     10 C7          1.3800   -5.1966   -1.8408 C.3       1 <0>        -0.1387
     11 C8          0.2973   -5.4487   -0.7619 C.3       1 <0>        -0.0102
     12 N2         -0.7318   -4.4114   -1.0086 N.4       1 <0>        -0.3882
     13 C9         -1.2914   -3.9544    0.2705 C.3       1 <0>         0.0437
     14 C10        -2.0783   -5.0733    0.9029 C.ar      1 <0>        -0.1974
     15 C11        -3.4250   -5.2144    0.6222 C.ar      1 <0>        -0.0486
     16 C12        -4.1486   -6.2388    1.2009 C.ar      1 <0>        -0.2034
     17 C13        -3.5230   -7.1269    2.0641 C.ar      1 <0>         0.1725
     18 C14        -2.1720   -6.9834    2.3437 C.ar      1 <0>        -0.1172
     19 C15        -1.4514   -5.9602    1.7582 C.ar      1 <0>        -0.0309
     20 C16        -1.4894   -7.9462    3.2808 C.3       1 <0>         0.1114
     21 O2         -0.1107   -7.5921    3.4064 O.3       1 <0>        -0.3777
     22 C17         0.6319   -8.4470    4.2780 C.3       1 <0>         0.0195
     23 C18         2.0867   -7.9766    4.3361 C.3       1 <0>         0.4626
     24 F1          2.1335   -6.6643    4.8188 F         1 <0>        -0.1749
     25 F2          2.8137   -8.8135    5.1894 F         1 <0>        -0.1701
     26 F3          2.6430   -8.0217    3.0532 F         1 <0>        -0.1784
     27 O3         -4.2329   -8.1353    2.6351 O.3       1 <0>        -0.3073
     28 C19        -5.6198   -8.2219    2.3020 C.3       1 <0>         0.0212
     29 H2         -0.3723    2.1176   -0.5043 H         1 <0>         0.0999
     30 H3         -2.0320    1.5342   -0.7753 H         1 <0>         0.0958
     31 H4         -1.4173    1.7300    0.8836 H         1 <0>         0.0909
     32 H5         -1.2254   -0.6664   -2.1825 H         1 <0>         0.1741
     33 H6          1.7321   -3.3128   -2.8980 H         1 <0>         0.1230
     34 H7          2.0104   -3.2256   -1.1278 H         1 <0>         0.1068
     35 H8          1.0887   -5.6337   -2.7958 H         1 <0>         0.1036
     36 H9          2.3489   -5.5776   -1.5180 H         1 <0>         0.1234
     37 H10        -0.1325   -6.4433   -0.8807 H         1 <0>         0.1391
     38 H11         0.7217   -5.3344    0.2356 H         1 <0>         0.1353
     39 H12        -0.4809   -3.6585    0.9367 H         1 <0>         0.1472
     40 H13        -1.9478   -3.1019    0.0960 H         1 <0>         0.1291
     41 H14        -3.9115   -4.5229   -0.0498 H         1 <0>         0.1339
     42 H15        -5.2005   -6.3482    0.9819 H         1 <0>         0.1444
     43 H16        -0.3986   -5.8505    1.9724 H         1 <0>         0.1464
     44 H17        -1.9668   -7.9006    4.2596 H         1 <0>         0.0800
     45 H18        -1.5699   -8.9582    2.8840 H         1 <0>         0.0795
     46 H19         0.1985   -8.4118    5.2775 H         1 <0>         0.1037
     47 H20         0.5955   -9.4694    3.9019 H         1 <0>         0.1032
     48 H21        -6.0667   -9.0680    2.8240 H         1 <0>         0.1122
     49 H22        -6.1235   -7.3029    2.6018 H         1 <0>         0.0639
     50 H23        -5.7272   -8.3607    1.2262 H         1 <0>         0.0632
     51 H24        -1.4686   -4.7910   -1.5839 H         1 <0>         0.4288
@<TRIPOS>BOND
     1    1    2 1
     2    1   29 1
     3    1   30 1
     4    1   31 1
     5    2    6 2
     6    2    3 1
     7    3    4 2
     8    3   32 1
     9    4    5 1
    10    4    7 1
    11    5    6 1
    12    7    8 1
    13    7   12 1
    14    7    9 1
    15    9   10 1
    16    9   33 1
    17    9   34 1
    18   10   11 1
    19   10   35 1
    20   10   36 1
    21   11   12 1
    22   11   37 1
    23   11   38 1
    24   12   13 1
    25   12   51 1
    26   13   14 1
    27   13   39 1
    28   13   40 1
    29   14   19 ar
    30   14   15 ar
    31   15   16 ar
    32   15   41 1
    33   16   17 ar
    34   16   42 1
    35   17   18 ar
    36   17   27 1
    37   18   19 ar
    38   18   20 1
    39   19   43 1
    40   20   21 1
    41   20   44 1
    42   20   45 1
    43   21   22 1
    44   22   23 1
    45   22   46 1
    46   22   47 1
    47   23   24 1
    48   23   25 1
    49   23   26 1
    50   27   28 1
    51   28   48 1
    52   28   49 1
    53   28   50 1
@<TRIPOS>MOLECULE
ZINC08446396
   71    74     0     0     0
SMALL
USER_CHARGES
4-(3,12-diformyloxy-10,13-dimethyl-2,3,4,5,6,7,8,9,11,12,14,15,16,17-tetradecahydro-1H-cyclopenta[a]phenanthren-17-yl)pentanoic acid
@<TRIPOS>ATOM
      1 C1         -6.9169    3.0264   -0.2726 C.3       1 <0>        -0.1368
      2 C2         -6.6789    3.3351    1.2069 C.3       1 <0>        -0.0888
      3 H1         -7.2146    2.6105    1.8200 H         1 <0>         0.0672
      4 C3         -7.1861    4.7438    1.5219 C.3       1 <0>        -0.0922
      5 C4         -8.7041    4.7924    1.3374 C.3       1 <0>        -0.1570
      6 C5         -9.2037    6.1799    1.6477 C.2       1 <0>         0.4572
      7 O1         -8.4254    7.0415    1.9821 O.co2     1 <0>        -0.6434
      8 C6         -5.1816    3.2523    1.5107 C.3       1 <0>        -0.0619
      9 H2         -4.6254    3.9051    0.8379 H         1 <0>         0.0714
     10 C7         -4.9125    3.6466    2.9772 C.3       1 <0>        -0.1255
     11 C8         -4.2632    2.4171    3.6491 C.3       1 <0>        -0.1200
     12 C9         -3.6235    1.6386    2.4637 C.3       1 <0>        -0.0693
     13 H3         -3.4356    0.5907    2.6976 H         1 <0>         0.0793
     14 C10        -4.6922    1.8051    1.3682 C.3       1 <0>        -0.0502
     15 C11        -4.1734    1.5000   -0.0184 C.3       1 <0>         0.0978
     16 H4         -3.9403    0.4375   -0.0870 H         1 <0>         0.0717
     17 C12        -2.9149    2.3102   -0.3269 C.3       1 <0>        -0.1402
     18 C13        -1.8440    1.9564    0.7116 C.3       1 <0>        -0.0617
     19 H5         -1.6567    0.8826    0.7059 H         1 <0>         0.0715
     20 C14        -2.3389    2.3841    2.0918 C.3       1 <0>        -0.0792
     21 H6         -2.5358    3.4561    2.0776 H         1 <0>         0.0820
     22 C15        -1.2661    2.0806    3.1408 C.3       1 <0>        -0.1133
     23 C16         0.0197    2.8330    2.7957 C.3       1 <0>        -0.1265
     24 C17         0.5148    2.3858    1.4183 C.3       1 <0>        -0.0703
     25 H7          0.7061    1.3128    1.4280 H         1 <0>         0.0696
     26 C18        -0.5534    2.7052    0.3706 C.3       1 <0>        -0.0454
     27 C19        -0.8239    4.2113    0.3638 C.3       1 <0>        -0.1159
     28 C20         0.4658    4.9594    0.0207 C.3       1 <0>        -0.1439
     29 C21         1.5358    4.6381    1.0658 C.3       1 <0>         0.0920
     30 H8          2.4548    5.1703    0.8204 H         1 <0>         0.0770
     31 C22         1.8052    3.1320    1.0736 C.3       1 <0>        -0.1156
     32 O2          1.0715    5.0535    2.3774 O.3       1 <0>        -0.3424
     33 C23         1.3651    6.3064    2.7592 C.2       1 <0>         0.4449
     34 O3          1.0051    6.7086    3.8401 O.2       1 <0>        -0.4778
     35 C24        -0.0600    2.2691   -1.0104 C.3       1 <0>        -0.1499
     36 O4         -5.2001    1.8259   -0.9920 O.3       1 <0>        -0.3203
     37 C25        -5.2383    1.0827   -2.1092 C.2       1 <0>         0.4370
     38 O5         -6.0707    1.3070   -2.9558 O.2       1 <0>        -0.4798
     39 C26        -5.8500    0.8568    1.6860 C.3       1 <0>        -0.1525
     40 H9         -6.9153    1.9468   -0.4233 H         1 <0>         0.0640
     41 H10        -7.8802    3.4345   -0.5786 H         1 <0>         0.0482
     42 H11        -6.1248    3.4778   -0.8700 H         1 <0>         0.0631
     43 H12        -6.9370    4.9977    2.5523 H         1 <0>         0.0600
     44 H13        -6.7150    5.4588    0.8475 H         1 <0>         0.0551
     45 H14        -8.9532    4.5385    0.3071 H         1 <0>         0.0645
     46 H15        -9.1752    4.0773    2.0119 H         1 <0>         0.0577
     47 H16        -4.2319    4.4972    3.0167 H         1 <0>         0.0613
     48 H17        -5.8497    3.8937    3.4758 H         1 <0>         0.0738
     49 H18        -3.4970    2.7291    4.3588 H         1 <0>         0.0664
     50 H19        -5.0190    1.8092    4.1463 H         1 <0>         0.0636
     51 H20        -3.1414    3.3750   -0.2723 H         1 <0>         0.0852
     52 H21        -2.5543    2.0620   -1.3251 H         1 <0>         0.0695
     53 H22        -1.0664    1.0092    3.1559 H         1 <0>         0.0545
     54 H23        -1.6195    2.3975    4.1221 H         1 <0>         0.0631
     55 H24         0.7811    2.6145    3.5444 H         1 <0>         0.0545
     56 H25        -0.1785    3.9048    2.7805 H         1 <0>         0.1041
     57 H26        -1.5859    4.4402   -0.3813 H         1 <0>         0.0693
     58 H27        -1.1734    4.5222    1.3483 H         1 <0>         0.0790
     59 H28         0.2732    6.0323    0.0159 H         1 <0>         0.0681
     60 H29         0.8150    4.6487   -0.9641 H         1 <0>         0.0851
     61 H30         2.5675    2.9030    1.8183 H         1 <0>         0.0718
     62 H31         2.1536    2.8199    0.0890 H         1 <0>         0.0865
     63 H32         1.9232    6.9550    2.1001 H         1 <0>         0.1164
     64 H33         0.1341    1.1966   -1.0049 H         1 <0>         0.0538
     65 H34         0.8584    2.8034   -1.2535 H         1 <0>         0.0581
     66 H35        -0.8212    2.4968   -1.7567 H         1 <0>         0.0585
     67 H36        -4.5250    0.2844   -2.2514 H         1 <0>         0.1080
     68 H37        -5.4742   -0.1638    1.7590 H         1 <0>         0.0447
     69 H38        -6.3060    1.1447    2.6332 H         1 <0>         0.0655
     70 H39        -6.5947    0.9137    0.8920 H         1 <0>         0.0698
     71 O6        -10.5133    6.4586    1.5526 O.co2     1 <0>        -0.7818
@<TRIPOS>BOND
     1    1    2 1
     2    1   40 1
     3    1   41 1
     4    1   42 1
     5    2    3 1
     6    2    4 1
     7    2    8 1
     8    4    5 1
     9    4   43 1
    10    4   44 1
    11    5    6 1
    12    5   45 1
    13    5   46 1
    14    6    7 2
    15    6   71 1
    16    8    9 1
    17    8   14 1
    18    8   10 1
    19   10   11 1
    20   10   47 1
    21   10   48 1
    22   11   12 1
    23   11   49 1
    24   11   50 1
    25   12   13 1
    26   12   20 1
    27   12   14 1
    28   14   15 1
    29   14   39 1
    30   15   16 1
    31   15   17 1
    32   15   36 1
    33   17   18 1
    34   17   51 1
    35   17   52 1
    36   18   19 1
    37   18   26 1
    38   18   20 1
    39   20   21 1
    40   20   22 1
    41   22   23 1
    42   22   53 1
    43   22   54 1
    44   23   24 1
    45   23   55 1
    46   23   56 1
    47   24   25 1
    48   24   31 1
    49   24   26 1
    50   26   27 1
    51   26   35 1
    52   27   28 1
    53   27   57 1
    54   27   58 1
    55   28   29 1
    56   28   59 1
    57   28   60 1
    58   29   30 1
    59   29   31 1
    60   29   32 1
    61   31   61 1
    62   31   62 1
    63   32   33 1
    64   33   34 2
    65   33   63 1
    66   35   64 1
    67   35   65 1
    68   35   66 1
    69   36   37 1
    70   37   38 2
    71   37   67 1
    72   39   68 1
    73   39   69 1
    74   39   70 1
@<TRIPOS>MOLECULE
ZINC09353178
   64    68     0     0     0
SMALL
USER_CHARGES
(5S)-1-benzyl-3-hydroxy-4-[(2S)-2-methyl2,3-dihydrobenzofuran-5-carbonyl]-5-(3-propoxyphenyl)-5H-pyrrol-2-one
@<TRIPOS>ATOM
      1 C1         -1.3472    3.6713   -8.7778 C.3       1 <0>        -0.1506
      2 C2         -0.9738    2.6481   -7.7033 C.3       1 <0>        -0.1246
      3 C3         -1.0313    3.3113   -6.3257 C.3       1 <0>         0.0584
      4 O1         -0.6825    2.3557   -5.3221 O.3       1 <0>        -0.3176
      5 C4         -0.6847    2.7860   -4.0330 C.ar      1 <0>         0.1253
      6 C5         -1.0153    4.1014   -3.7401 C.ar      1 <0>        -0.2167
      7 C6         -1.0163    4.5364   -2.4292 C.ar      1 <0>        -0.0821
      8 C7         -0.6937    3.6608   -1.4086 C.ar      1 <0>        -0.1276
      9 C8         -0.3585    2.3513   -1.6983 C.ar      1 <0>        -0.0343
     10 C9         -0.3560    1.9112   -3.0080 C.ar      1 <0>        -0.1456
     11 C10        -0.0014    1.4014   -0.5842 C.3       1 <0>         0.2652
     12 H1         -0.1195    0.3737   -0.9582 H         1 <0>         0.0700
     13 C11         1.4029    1.6748   -0.0985 C.2       1 <0>        -0.4966
     14 C12         1.3052    2.0142    1.2078 C.2       1 <0>         0.2657
     15 C13        -0.1153    1.9778    1.6141 C.2       1 <0>         0.5141
     16 O2         -0.5288    2.2331    2.7277 O.2       1 <0>        -0.5333
     17 N1         -0.8829    1.6198    0.5688 N.am      1 <0>        -0.6054
     18 C14        -2.3405    1.4738    0.5795 C.3       1 <0>         0.1714
     19 C15        -2.7009    0.0578    0.9485 C.ar      1 <0>        -0.1007
     20 C16        -2.8494   -0.8976   -0.0395 C.ar      1 <0>        -0.1035
     21 C17        -3.1751   -2.1975    0.2994 C.ar      1 <0>        -0.1253
     22 C18        -3.3622   -2.5399    1.6255 C.ar      1 <0>        -0.1214
     23 C19        -3.2193   -1.5833    2.6131 C.ar      1 <0>        -0.1238
     24 C20        -2.8884   -0.2845    2.2746 C.ar      1 <0>        -0.0956
     25 O3          2.3431    2.3363    2.0139 O.3       1 <0>        -0.6519
     26 C21         2.6343    1.5884   -0.8899 C.2       1 <0>         0.5077
     27 O4          3.2970    2.5883   -1.0954 O.2       1 <0>        -0.4766
     28 C22         3.0702    0.2887   -1.4374 C.ar      1 <0>        -0.1629
     29 C23         2.3834   -0.8828   -1.1035 C.ar      1 <0>        -0.0291
     30 C24         2.7846   -2.0908   -1.6218 C.ar      1 <0>        -0.1524
     31 C25         3.8869   -2.1629   -2.4760 C.ar      1 <0>         0.1178
     32 C26         4.5752   -0.9950   -2.7940 C.ar      1 <0>        -0.1957
     33 C27         4.1772    0.2181   -2.2898 C.ar      1 <0>        -0.0240
     34 C28         5.7205   -1.3899   -3.7066 C.3       1 <0>        -0.0995
     35 C29         5.7772   -2.9224   -3.5033 C.3       1 <0>         0.0793
     36 H2          6.4933   -3.2696   -2.7440 H         1 <0>         0.0882
     37 O5          4.4348   -3.2403   -3.0990 O.3       1 <0>        -0.3040
     38 C30         6.1308   -3.6301   -4.8129 C.3       1 <0>        -0.1553
     39 H3         -1.3059    3.1945   -9.7682 H         1 <0>         0.0630
     40 H4         -0.6385    4.5119   -8.7456 H         1 <0>         0.0575
     41 H5         -2.3657    4.0430   -8.5920 H         1 <0>         0.0569
     42 H6         -1.6825    1.8075   -7.7355 H         1 <0>         0.0727
     43 H7          0.0447    2.2763   -7.8891 H         1 <0>         0.0734
     44 H8         -0.3226    4.1520   -6.2936 H         1 <0>         0.0600
     45 H9         -2.0498    3.6830   -6.1399 H         1 <0>         0.0592
     46 H10        -1.2713    4.7845   -4.5364 H         1 <0>         0.1200
     47 H11        -1.2739    5.5600   -2.2006 H         1 <0>         0.1195
     48 H12        -0.6997    4.0016   -0.3838 H         1 <0>         0.1193
     49 H13        -0.0979    0.8870   -3.2335 H         1 <0>         0.1265
     50 H14        -2.7729    2.1662    1.3168 H         1 <0>         0.0876
     51 H15        -2.7396    1.7054   -0.4191 H         1 <0>         0.0852
     52 H16        -2.7072   -0.6291   -1.0759 H         1 <0>         0.1208
     53 H17        -3.2871   -2.9448   -0.4723 H         1 <0>         0.1189
     54 H18        -3.6204   -3.5547    1.8900 H         1 <0>         0.1171
     55 H19        -3.3658   -1.8507    3.6492 H         1 <0>         0.1189
     56 H20        -2.7767    0.4629    3.0462 H         1 <0>         0.1251
     57 H21         1.5326   -0.8376   -0.4398 H         1 <0>         0.1424
     58 H22         2.2467   -2.9908   -1.3631 H         1 <0>         0.1278
     59 H23         4.7178    1.1161   -2.5504 H         1 <0>         0.1302
     60 H24         5.4820   -1.1002   -4.7406 H         1 <0>         0.0906
     61 H25         6.6392   -0.8775   -3.3849 H         1 <0>         0.0902
     62 H26         6.1654   -4.7166   -4.6448 H         1 <0>         0.0664
     63 H27         7.1134   -3.2819   -5.1641 H         1 <0>         0.0779
     64 H28         5.3678   -3.4005   -5.5713 H         1 <0>         0.0659
@<TRIPOS>BOND
     1    1    2 1
     2    1   39 1
     3    1   40 1
     4    1   41 1
     5    2    3 1
     6    2   42 1
     7    2   43 1
     8    3    4 1
     9    3   44 1
    10    3   45 1
    11    4    5 1
    12    5   10 ar
    13    5    6 ar
    14    6    7 ar
    15    6   46 1
    16    7    8 ar
    17    7   47 1
    18    8    9 ar
    19    8   48 1
    20    9   10 ar
    21    9   11 1
    22   10   49 1
    23   11   12 1
    24   11   17 1
    25   11   13 1
    26   13   14 2
    27   13   26 1
    28   14   15 1
    29   14   25 1
    30   15   16 2
    31   15   17 am
    32   17   18 1
    33   18   19 1
    34   18   50 1
    35   18   51 1
    36   19   24 ar
    37   19   20 ar
    38   20   21 ar
    39   20   52 1
    40   21   22 ar
    41   21   53 1
    42   22   23 ar
    43   22   54 1
    44   23   24 ar
    45   23   55 1
    46   24   56 1
    47   26   27 2
    48   26   28 1
    49   28   33 ar
    50   28   29 ar
    51   29   30 ar
    52   29   57 1
    53   30   31 ar
    54   30   58 1
    55   31   37 1
    56   31   32 ar
    57   32   33 ar
    58   32   34 1
    59   33   59 1
    60   34   35 1
    61   34   60 1
    62   34   61 1
    63   35   36 1
    64   35   37 1
    65   35   38 1
    66   38   62 1
    67   38   63 1
    68   38   64 1
@<TRIPOS>MOLECULE
ZINC34922686
   64    66     0     0     0
SMALL
USER_CHARGES

@<TRIPOS>ATOM
      1 C1         -0.9874   -2.4221    2.0696 C.3       1 <0>        -0.1454
      2 C2         -1.3851   -1.6395    0.8164 C.3       1 <0>        -0.1526
      3 C3         -0.1448   -1.3900   -0.0440 C.3       1 <0>         0.1356
      4 N1         -0.5256   -0.6406   -1.2439 N.pl3     1 <0>        -0.6336
      5 C4         -0.5086    0.8242   -1.2288 C.3       1 <0>         0.1378
      6 C5          0.9013    1.3213   -1.5544 C.3       1 <0>        -0.1372
      7 C6          0.9489    2.8445   -1.4193 C.3       1 <0>        -0.1460
      8 C7         -0.9015   -1.3169   -2.3922 C.2       1 <0>         0.5050
      9 O1         -1.0257   -0.6464   -3.5635 O.3       1 <0>        -0.7023
     10 C8         -1.1437   -2.6410   -2.3452 C.2       1 <0>        -0.4656
     11 C9         -1.3405   -3.3968   -3.5905 C.2       1 <0>         0.2358
     12 C10        -1.0849   -2.8398   -4.7948 C.2       1 <0>        -0.3055
     13 S1         -1.4875   -4.1703   -5.9093 S.3       1 <0>         0.1413
     14 C11        -1.9456   -5.3231   -4.7787 C.2       1 <0>         0.3253
     15 N2         -2.3672   -6.5631   -4.9187 N.2       1 <0>        -0.5951
     16 C12        -2.6967   -7.3657   -3.9199 C.2       1 <0>         0.2996
     17 C13        -2.6129   -6.9270   -2.6123 C.2       1 <0>        -0.3859
     18 C14        -2.1358   -5.5120   -2.3725 C.3       1 <0>         0.2626
     19 H1         -1.2526   -5.5590   -1.7355 H         1 <0>         0.0692
     20 N3         -1.7876   -4.7030   -3.5709 N.pl3     1 <0>        -0.5141
     21 C15        -3.2127   -4.7820   -1.6119 C.ar      1 <0>        -0.0701
     22 C16        -3.0234   -4.4632   -0.2800 C.ar      1 <0>        -0.0648
     23 C17        -4.0110   -3.7937    0.4175 C.ar      1 <0>        -0.1288
     24 C18        -5.1882   -3.4424   -0.2167 C.ar      1 <0>        -0.1183
     25 C19        -5.3772   -3.7603   -1.5485 C.ar      1 <0>        -0.1271
     26 C20        -4.3874   -4.4262   -2.2474 C.ar      1 <0>        -0.0551
     27 C21        -4.5913   -4.7681   -3.7009 C.3       1 <0>        -0.1274
     28 C22        -2.9585   -7.7645   -1.5448 C.2       1 <0>         0.5356
     29 O2         -3.2557   -8.9277   -1.7544 O.2       1 <0>        -0.5513
     30 O3         -2.9625   -7.2830   -0.2821 O.3       1 <0>        -0.3511
     31 C23        -3.2136   -8.2188    0.7682 C.3       1 <0>         0.0656
     32 C24        -3.2965   -7.4766    2.1036 C.3       1 <0>        -0.1488
     33 C25        -3.1671   -8.7676   -4.2102 C.3       1 <0>        -0.0924
     34 H2         -1.8710   -2.5998    2.6825 H         1 <0>         0.0499
     35 H3         -0.5494   -3.3767    1.7780 H         1 <0>         0.0521
     36 H4         -0.2586   -1.8472    2.6409 H         1 <0>         0.0475
     37 H5         -2.1140   -2.2143    0.2451 H         1 <0>         0.0823
     38 H6         -1.8231   -0.6849    1.1080 H         1 <0>         0.0522
     39 H7          0.5841   -0.8151    0.5273 H         1 <0>         0.0531
     40 H8          0.2932   -2.3446   -0.3355 H         1 <0>         0.0687
     41 H9         -1.2085    1.2033   -1.9735 H         1 <0>         0.0736
     42 H10        -0.8005    1.1808   -0.2410 H         1 <0>         0.0468
     43 H11         1.6136    0.8726   -0.8621 H         1 <0>         0.0506
     44 H12         1.1595    1.0388   -2.5751 H         1 <0>         0.0677
     45 H13         0.2365    3.2932   -2.1117 H         1 <0>         0.0532
     46 H14         0.6907    3.1270   -0.3987 H         1 <0>         0.0475
     47 H15         1.9533    3.1987   -1.6513 H         1 <0>         0.0482
     48 H16        -1.1933   -3.1474   -1.3926 H         1 <0>         0.0956
     49 H17        -0.7289   -1.8459   -5.0227 H         1 <0>         0.2262
     50 H18        -2.1038   -4.7377    0.2155 H         1 <0>         0.1129
     51 H19        -3.8634   -3.5454    1.4582 H         1 <0>         0.1127
     52 H20        -5.9603   -2.9199    0.3285 H         1 <0>         0.1116
     53 H21        -6.2969   -3.4861   -2.0438 H         1 <0>         0.1115
     54 H22        -4.9328   -5.7997   -3.7870 H         1 <0>         0.0630
     55 H23        -5.3389   -4.1009   -4.1297 H         1 <0>         0.0570
     56 H24        -3.6496   -4.6512   -4.2372 H         1 <0>         0.0742
     57 H25        -4.1560   -8.7329    0.5792 H         1 <0>         0.0591
     58 H26        -2.4037   -8.9473    0.8071 H         1 <0>         0.0559
     59 H27        -3.3996   -8.1978    2.9143 H         1 <0>         0.0700
     60 H28        -2.3887   -6.8916    2.2510 H         1 <0>         0.0640
     61 H29        -4.1601   -6.8117    2.0967 H         1 <0>         0.0634
     62 H30        -3.1692   -8.9344   -5.2874 H         1 <0>         0.0641
     63 H31        -2.4962   -9.4821   -3.7332 H         1 <0>         0.0882
     64 H32        -4.1762   -8.9004   -3.8201 H         1 <0>         0.0829
@<TRIPOS>BOND
     1    1    2 1
     2    1   34 1
     3    1   35 1
     4    1   36 1
     5    2    3 1
     6    2   37 1
     7    2   38 1
     8    3    4 1
     9    3   39 1
    10    3   40 1
    11    4    5 1
    12    4    8 1
    13    5    6 1
    14    5   41 1
    15    5   42 1
    16    6    7 1
    17    6   43 1
    18    6   44 1
    19    7   45 1
    20    7   46 1
    21    7   47 1
    22    8    9 1
    23    8   10 2
    24   10   11 1
    25   10   48 1
    26   11   20 1
    27   11   12 2
    28   12   13 1
    29   12   49 1
    30   13   14 1
    31   14   20 1
    32   14   15 2
    33   15   16 1
    34   16   17 2
    35   16   33 1
    36   17   18 1
    37   17   28 1
    38   18   19 1
    39   18   20 1
    40   18   21 1
    41   21   26 ar
    42   21   22 ar
    43   22   23 ar
    44   22   50 1
    45   23   24 ar
    46   23   51 1
    47   24   25 ar
    48   24   52 1
    49   25   26 ar
    50   25   53 1
    51   26   27 1
    52   27   54 1
    53   27   55 1
    54   27   56 1
    55   28   29 2
    56   28   30 1
    57   30   31 1
    58   31   32 1
    59   31   57 1
    60   31   58 1
    61   32   59 1
    62   32   60 1
    63   32   61 1
    64   33   62 1
    65   33   63 1
    66   33   64 1
@<TRIPOS>MOLECULE
ZINC40029593
   54    56     0     0     0
SMALL
USER_CHARGES

@<TRIPOS>ATOM
      1 C1          3.0162   -1.8666    3.7659 C.3       1 <0>        -0.1489
      2 C2          2.1408   -2.5575    2.7183 C.3       1 <0>        -0.1245
      3 C3          3.0233   -3.0914    1.5882 C.3       1 <0>         0.0599
      4 O1          2.2057   -3.7367    0.6098 O.3       1 <0>        -0.3181
      5 C4          2.8384   -4.2702   -0.4682 C.ar      1 <0>         0.1088
      6 C5          4.2200   -4.1785   -0.5777 C.ar      1 <0>        -0.1955
      7 C6          4.8694   -4.7190   -1.6724 C.ar      1 <0>        -0.0995
      8 C7          4.1490   -5.3532   -2.6636 C.ar      1 <0>        -0.0900
      9 C8          2.7596   -5.4507   -2.5622 C.ar      1 <0>        -0.0896
     10 C9          2.1062   -4.9095   -1.4536 C.ar      1 <0>        -0.1067
     11 C10         1.9840   -6.1296   -3.6224 C.2       1 <0>         0.5068
     12 O2          0.7833   -6.2803   -3.4960 O.2       1 <0>        -0.4714
     13 C11         2.6617   -6.6212   -4.8256 C.2       1 <0>        -0.4983
     14 C12         2.8018   -7.9138   -5.2022 C.2       1 <0>         0.2628
     15 C13         3.5485   -7.9699   -6.4768 C.2       1 <0>         0.5116
     16 O3          3.8347   -8.9890   -7.0730 O.2       1 <0>        -0.5327
     17 N1          3.8638   -6.7254   -6.8793 N.am      1 <0>        -0.6130
     18 C14         3.3327   -5.7824   -5.8881 C.3       1 <0>         0.2733
     19 H1          4.1466   -5.2042   -5.4505 H         1 <0>         0.0805
     20 C15         2.3288   -4.8607   -6.5313 C.ar      1 <0>        -0.0958
     21 C16         1.5424   -5.3139   -7.5730 C.ar      1 <0>        -0.0214
     22 C17         0.6208   -4.4683   -8.1637 C.ar      1 <0>        -0.1240
     23 C18         0.4844   -3.1672   -7.7129 C.ar      1 <0>        -0.0595
     24 C19         1.2683   -2.7104   -6.6715 C.ar      1 <0>        -0.2076
     25 C20         2.1896   -3.5585   -6.0742 C.ar      1 <0>         0.1488
     26 O4          2.9587   -3.1123   -5.0461 O.3       1 <0>        -0.2999
     27 C21         2.8368   -1.7322   -4.6963 C.3       1 <0>         0.0282
     28 Br1        -0.4537   -5.0911   -9.5896 Br        1 <0>        -0.0648
     29 C22         4.6021   -6.3736   -8.0948 C.3       1 <0>         0.1614
     30 C23         3.6329   -6.1757   -9.2317 C.2       1 <0>        -0.1627
     31 C24         3.6363   -5.0535   -9.9074 C.2       1 <0>        -0.1821
     32 O5          2.3338   -8.9842   -4.5201 O.3       1 <0>        -0.6522
     33 H2          3.7316   -2.5823    4.1708 H         1 <0>         0.0570
     34 H3          3.5530   -1.0390    3.3022 H         1 <0>         0.0564
     35 H4          2.3875   -1.4862    4.5710 H         1 <0>         0.0625
     36 H5          1.6040   -3.3851    3.1820 H         1 <0>         0.0733
     37 H6          1.4254   -1.8417    2.3134 H         1 <0>         0.0725
     38 H7          3.5601   -2.2638    1.1245 H         1 <0>         0.0586
     39 H8          3.7387   -3.8072    1.9931 H         1 <0>         0.0593
     40 H9          4.7892   -3.6830    0.1948 H         1 <0>         0.1218
     41 H10         5.9438   -4.6441   -1.7519 H         1 <0>         0.1233
     42 H11         4.6592   -5.7736   -3.5176 H         1 <0>         0.1341
     43 H12         1.0323   -4.9853   -1.3674 H         1 <0>         0.1340
     44 H13         1.6476   -6.3289   -7.9265 H         1 <0>         0.1349
     45 H14        -0.2353   -2.5084   -8.1760 H         1 <0>         0.1280
     46 H15         1.1617   -1.6947   -6.3202 H         1 <0>         0.1316
     47 H16         3.5625   -1.4887   -3.9203 H         1 <0>         0.0972
     48 H17         3.0250   -1.1165   -5.5758 H         1 <0>         0.0526
     49 H18         1.8301   -1.5387   -4.3260 H         1 <0>         0.0532
     50 H19         5.1591   -5.4518   -7.9276 H         1 <0>         0.0789
     51 H20         5.2954   -7.1769   -8.3441 H         1 <0>         0.0879
     52 H21         2.9355   -6.9591   -9.4894 H         1 <0>         0.1094
     53 H22         2.9417   -4.9116  -10.7222 H         1 <0>         0.0964
     54 H23         4.3336   -4.2701   -9.6498 H         1 <0>         0.0932
@<TRIPOS>BOND
     1    1    2 1
     2    1   33 1
     3    1   34 1
     4    1   35 1
     5    2    3 1
     6    2   36 1
     7    2   37 1
     8    3    4 1
     9    3   38 1
    10    3   39 1
    11    4    5 1
    12    5   10 ar
    13    5    6 ar
    14    6    7 ar
    15    6   40 1
    16    7    8 ar
    17    7   41 1
    18    8    9 ar
    19    8   42 1
    20    9   10 ar
    21    9   11 1
    22   10   43 1
    23   11   12 2
    24   11   13 1
    25   13   18 1
    26   13   14 2
    27   14   15 1
    28   14   32 1
    29   15   16 2
    30   15   17 am
    31   17   18 1
    32   17   29 1
    33   18   19 1
    34   18   20 1
    35   20   25 ar
    36   20   21 ar
    37   21   22 ar
    38   21   44 1
    39   22   23 ar
    40   22   28 1
    41   23   24 ar
    42   23   45 1
    43   24   25 ar
    44   24   46 1
    45   25   26 1
    46   26   27 1
    47   27   47 1
    48   27   48 1
    49   27   49 1
    50   29   30 1
    51   29   50 1
    52   29   51 1
    53   30   31 2
    54   30   52 1
    55   31   53 1
    56   31   54 1
@<TRIPOS>MOLECULE
ZINC33875049
   46    48     0     0     0
SMALL
USER_CHARGES

@<TRIPOS>ATOM
      1 C1         -0.2816    1.4369    0.3350 C.3       1 <0>         0.0308
      2 O1         -0.3789    0.0308    0.5708 O.3       1 <0>        -0.3792
      3 C2          0.5877   -0.4717    1.4955 C.3       1 <0>         0.1374
      4 C3          0.3938   -1.9562    1.6678 C.2       1 <0>         0.1168
      5 N1         -0.4834   -2.6778    1.0870 N.2       1 <0>        -0.2169
      6 N2         -0.4155   -4.0196    1.4492 N.am      1 <0>        -0.4235
      7 C4          0.5760   -4.2335    2.3394 C.2       1 <0>         0.5025
      8 O2          0.8962   -5.2865    2.8493 O.2       1 <0>        -0.4527
      9 C5          1.2078   -2.8720    2.5578 C.3       1 <0>        -0.1177
     10 H1          1.1172   -2.5723    3.6019 H         1 <0>         0.1520
     11 C6          2.6750   -2.8801    2.1239 C.3       1 <0>        -0.0355
     12 C7          3.4822   -3.6996    3.0974 C.2       1 <0>        -0.1693
     13 C8          3.7338   -5.0023    2.8385 C.2       1 <0>        -0.0783
     14 C9          4.2986   -5.8646    3.8871 C.ar      1 <0>         0.0002
     15 C10         3.7531   -5.8538    5.1757 C.ar      1 <0>        -0.0037
     16 C11         4.2875   -6.6650    6.1532 C.ar      1 <0>        -0.1277
     17 C12         5.3625   -7.4896    5.8628 C.ar      1 <0>        -0.0372
     18 C13         5.9082   -7.5053    4.5892 C.ar      1 <0>        -0.1269
     19 C14         5.3805   -6.7042    3.5997 C.ar      1 <0>        -0.1129
     20 Cl1         6.0293   -8.5076    7.1008 Cl        1 <0>        -0.0996
     21 C15         3.9771   -3.1053    4.2827 C.2       1 <0>         0.5090
     22 O3          4.7490   -3.7264    5.0032 O.co2     1 <0>        -0.6696
     23 O4          3.6335   -1.9698    4.5883 O.co2     1 <0>        -0.6964
     24 C16        -1.2651   -5.0171    0.9554 C.ar      1 <0>         0.1977
     25 C17        -1.1199   -6.3299    1.3848 C.ar      1 <0>        -0.1497
     26 C18        -1.9592   -7.3117    0.8961 C.ar      1 <0>        -0.0610
     27 C19        -2.9441   -6.9885   -0.0206 C.ar      1 <0>        -0.1160
     28 C20        -3.0906   -5.6815   -0.4504 C.ar      1 <0>        -0.0676
     29 C21        -2.2581   -4.6945    0.0396 C.ar      1 <0>        -0.1298
     30 Br1        -4.0914   -8.3356   -0.6875 Br        1 <0>        -0.0575
     31 H2          0.7030    1.6701   -0.0704 H         1 <0>         0.0453
     32 H3         -1.0489    1.7398   -0.3774 H         1 <0>         0.0881
     33 H4         -0.4247    1.9733    1.2730 H         1 <0>         0.0455
     34 H5          1.5903   -0.2781    1.1142 H         1 <0>         0.0908
     35 H6          0.4627    0.0251    2.4576 H         1 <0>         0.0920
     36 H7          2.7568   -3.3148    1.1276 H         1 <0>         0.0589
     37 H8          3.0544   -1.8584    2.1068 H         1 <0>         0.0961
     38 H9          3.5198   -5.4098    1.8614 H         1 <0>         0.1043
     39 H10         2.9156   -5.2110    5.4036 H         1 <0>         0.1185
     40 H11         3.8675   -6.6577    7.1482 H         1 <0>         0.1206
     41 H12         6.7466   -8.1501    4.3703 H         1 <0>         0.1203
     42 H13         5.8040   -6.7208    2.6064 H         1 <0>         0.1194
     43 H14        -0.3512   -6.5828    2.1000 H         1 <0>         0.1620
     44 H15        -1.8466   -8.3328    1.2294 H         1 <0>         0.1384
     45 H16        -3.8597   -5.4321   -1.1665 H         1 <0>         0.1368
     46 H17        -2.3763   -3.6736   -0.2923 H         1 <0>         0.1453
@<TRIPOS>BOND
     1    1    2 1
     2    1   31 1
     3    1   32 1
     4    1   33 1
     5    2    3 1
     6    3    4 1
     7    3   34 1
     8    3   35 1
     9    4    9 1
    10    4    5 2
    11    5    6 1
    12    6    7 am
    13    6   24 1
    14    7    8 2
    15    7    9 1
    16    9   10 1
    17    9   11 1
    18   11   12 1
    19   11   36 1
    20   11   37 1
    21   12   13 2
    22   12   21 1
    23   13   14 1
    24   13   38 1
    25   14   19 ar
    26   14   15 ar
    27   15   16 ar
    28   15   39 1
    29   16   17 ar
    30   16   40 1
    31   17   18 ar
    32   17   20 1
    33   18   19 ar
    34   18   41 1
    35   19   42 1
    36   21   22 2
    37   21   23 1
    38   24   29 ar
    39   24   25 ar
    40   25   26 ar
    41   25   43 1
    42   26   27 ar
    43   26   44 1
    44   27   28 ar
    45   27   30 1
    46   28   29 ar
    47   28   45 1
    48   29   46 1
@<TRIPOS>MOLECULE
ZINC03068568
   52    56     0     0     0
SMALL
USER_CHARGES
(2-chloro-4-hydroxy-5-nitro-phenyl)-dimethyl-BLAHone
@<TRIPOS>ATOM
      1 C1         -4.6472    2.0349   -4.2734 C.3       1 <0>        -0.1507
      2 C2         -6.0478    1.4396   -4.1308 C.3       1 <0>        -0.0569
      3 C3         -5.9697    0.0239   -3.5583 C.3       1 <0>        -0.0974
      4 C4         -5.3270    0.0479   -2.1963 C.2       1 <0>         0.0716
      5 C5         -5.5681    1.1024   -1.3668 C.2       1 <0>        -0.2529
      6 C6         -4.9950    1.1294    0.0289 C.3       1 <0>         0.2692
      7 H1         -5.7033    1.6236    0.6992 H         1 <0>         0.1057
      8 N1         -4.7483   -0.2308    0.5095 N.pl3     1 <0>        -0.7092
      9 C7         -4.3302   -1.2085   -0.3761 C.ar      1 <0>         0.2637
     10 C8         -4.5306   -1.0318   -1.7554 C.ar      1 <0>        -0.1800
     11 C9         -3.8505   -1.9543   -2.6607 C.ar      1 <0>         0.0315
     12 C10        -3.6148   -1.6751   -4.0084 C.ar      1 <0>        -0.1279
     13 C11        -3.1373   -2.6530   -4.8345 C.ar      1 <0>        -0.0997
     14 C12        -2.8012   -3.9073   -4.3356 C.ar      1 <0>        -0.1407
     15 C13        -2.8882   -4.1679   -3.0011 C.ar      1 <0>        -0.0842
     16 C14        -3.3347   -3.1648   -2.1264 C.ar      1 <0>        -0.0977
     17 C15        -3.2832   -3.3427   -0.7317 C.ar      1 <0>        -0.0360
     18 C16        -3.7335   -2.3755    0.1072 C.ar      1 <0>        -0.1745
     19 C17        -3.7004    1.9037    0.0285 C.ar      1 <0>        -0.2348
     20 C18        -2.5378    1.3045   -0.4202 C.ar      1 <0>         0.0277
     21 C19        -1.3502    2.0098   -0.4176 C.ar      1 <0>        -0.1987
     22 C20        -1.3256    3.3242    0.0264 C.ar      1 <0>         0.3195
     23 C21        -2.4933    3.9256    0.4718 C.ar      1 <0>        -0.2356
     24 C22        -3.6790    3.2140    0.4723 C.ar      1 <0>         0.0651
     25 Cl1        -5.1414    3.9654    1.0295 Cl        1 <0>        -0.0655
     26 N2         -0.1056    1.3658   -0.8939 N.pl3     1 <0>         0.0683
     27 O1         -0.1275    0.2120   -1.2835 O.2       1 <0>        -0.2582
     28 O2          0.9395    1.9912   -0.9009 O.3       1 <0>        -0.1656
     29 C23        -6.3493    2.1905   -1.7841 C.2       1 <0>         0.3898
     30 O3         -6.6064    3.0744   -0.9848 O.2       1 <0>        -0.4584
     31 C24        -6.8877    2.3001   -3.1828 C.3       1 <0>        -0.1435
     32 C25        -6.7219    1.3938   -5.5065 C.3       1 <0>        -0.1406
     33 H2         -4.0547    1.4129   -4.9444 H         1 <0>         0.0586
     34 H3         -4.7206    3.0426   -4.6822 H         1 <0>         0.0586
     35 H4         -4.1676    2.0735   -3.2954 H         1 <0>         0.0646
     36 H5         -5.4598   -0.6362   -4.2402 H         1 <0>         0.0976
     37 H6         -6.9999   -0.3499   -3.4390 H         1 <0>         0.0816
     38 H7         -4.8782   -0.4487    1.4516 H         1 <0>         0.4070
     39 H8         -3.8149   -0.6983   -4.4185 H         1 <0>         0.1300
     40 H9         -3.0013   -2.4420   -5.8848 H         1 <0>         0.1205
     41 H10        -2.4545   -4.6759   -5.0089 H         1 <0>         0.1193
     42 H11        -2.6147   -5.1401   -2.6187 H         1 <0>         0.1242
     43 H12        -2.8789   -4.2577   -0.3254 H         1 <0>         0.1300
     44 H13        -3.6302   -2.5085    1.1741 H         1 <0>         0.1276
     45 H14        -2.5577    0.2828   -0.7697 H         1 <0>         0.1295
     46 H15        -2.4766    4.9486    0.8175 H         1 <0>         0.1284
     47 H16        -6.8476    3.2553   -3.4760 H         1 <0>         0.0838
     48 H17        -7.9239    1.9589   -3.2042 H         1 <0>         0.0944
     49 H18        -7.7274    0.9855   -5.4050 H         1 <0>         0.0563
     50 H19        -6.7788    2.4020   -5.9169 H         1 <0>         0.0592
     51 H20        -6.1388    0.7614   -6.1759 H         1 <0>         0.0596
     52 O4         -0.1589    4.0212    0.0253 O.3       1 <0>        -0.6344
@<TRIPOS>BOND
     1    1    2 1
     2    1   33 1
     3    1   34 1
     4    1   35 1
     5    2   31 1
     6    2    3 1
     7    2   32 1
     8    3    4 1
     9    3   36 1
    10    3   37 1
    11    4   10 1
    12    4    5 2
    13    5    6 1
    14    5   29 1
    15    6    7 1
    16    6    8 1
    17    6   19 1
    18    8    9 1
    19    8   38 1
    20    9   18 ar
    21    9   10 ar
    22   10   11 ar
    23   11   16 ar
    24   11   12 ar
    25   12   13 ar
    26   12   39 1
    27   13   14 ar
    28   13   40 1
    29   14   15 ar
    30   14   41 1
    31   15   16 ar
    32   15   42 1
    33   16   17 ar
    34   17   18 ar
    35   17   43 1
    36   18   44 1
    37   19   24 ar
    38   19   20 ar
    39   20   21 ar
    40   20   45 1
    41   21   22 ar
    42   21   26 1
    43   22   23 ar
    44   22   52 1
    45   23   24 ar
    46   23   46 1
    47   24   25 1
    48   26   27 2
    49   26   28 1
    50   29   30 2
    51   29   31 1
    52   31   47 1
    53   31   48 1
    54   32   49 1
    55   32   50 1
    56   32   51 1
@<TRIPOS>MOLECULE
ZINC28356718
   44    47     0     0     0
SMALL
USER_CHARGES
(2R)-2-[5-(3,4-dichlorophenyl)-2-furyl]-4-oxo-1-(p-tolyl)-6-sulfanyl-2,3-dihydropyrimidine-5-carbonitrile
@<TRIPOS>ATOM
      1 C1         -0.0738    5.6676    0.0335 C.3       1 <0>        -0.1122
      2 C2         -0.0539    4.1607    0.0251 C.ar      1 <0>        -0.0926
      3 C3          0.3161    3.4821   -1.1216 C.ar      1 <0>        -0.1095
      4 C4          0.3358    2.1012   -1.1326 C.ar      1 <0>        -0.1005
      5 C5         -0.0169    1.3941    0.0097 C.ar      1 <0>         0.1701
      6 C6         -0.3940    2.0787    1.1579 C.ar      1 <0>        -0.1046
      7 C7         -0.4052    3.4597    1.1642 C.ar      1 <0>        -0.1130
      8 N1          0.0021   -0.0041    0.0020 N.pl3     1 <0>        -0.5723
      9 C8         -1.2444   -0.7680    0.1199 C.3       1 <0>         0.4669
     10 H1         -2.0899   -0.0928   -0.0780 H         1 <0>         0.1260
     11 N2         -1.2637   -1.8401   -0.8771 N.am      1 <0>        -0.7457
     12 C9         -0.1163   -2.4160   -1.2876 C.2       1 <0>         0.6007
     13 O1         -0.1440   -3.3353   -2.0859 O.2       1 <0>        -0.5610
     14 C10         1.1641   -1.9297   -0.7685 C.2       1 <0>        -0.3205
     15 C11         1.1872   -0.6860   -0.1216 C.2       1 <0>         0.4460
     16 S1          2.6903   -0.0234    0.5157 S.3       1 <0>        -0.7761
     17 C12         2.3603   -2.7020   -0.9217 C.1       1 <0>         0.3363
     18 N3          3.3092   -3.3146   -1.0433 N.1       1 <0>        -0.4945
     19 C13        -1.3374   -1.3655    1.5002 C.2       1 <0>        -0.0206
     20 C14        -1.9611   -2.5169    1.8174 C.2       1 <0>        -0.1826
     21 C15        -1.8069   -2.7009    3.2062 C.2       1 <0>        -0.1775
     22 C16        -1.0901   -1.6405    3.6645 C.2       1 <0>         0.0171
     23 O2         -0.8074   -0.8417    2.6176 O.3       1 <0>        -0.1425
     24 C17        -0.6859   -1.4080    5.0669 C.ar      1 <0>         0.0144
     25 C18         0.0527   -0.2722    5.4042 C.ar      1 <0>        -0.0815
     26 C19         0.4274   -0.0601    6.7145 C.ar      1 <0>        -0.0913
     27 C20         0.0730   -0.9710    7.6953 C.ar      1 <0>        -0.0313
     28 C21        -0.6599   -2.1003    7.3674 C.ar      1 <0>        -0.0267
     29 C22        -1.0459   -2.3200    6.0601 C.ar      1 <0>        -0.0835
     30 Cl1        -1.1003   -3.2368    8.6036 Cl        1 <0>        -0.0467
     31 Cl2         0.5494   -0.6975    9.3421 Cl        1 <0>        -0.0498
     32 H2          0.2332    6.0438   -0.9535 H         1 <0>         0.0625
     33 H3          0.6219    6.0392    0.8002 H         1 <0>         0.0672
     34 H4         -1.0911    6.0196    0.2599 H         1 <0>         0.0656
     35 H5          0.5902    4.0325   -2.0094 H         1 <0>         0.1212
     36 H6          0.6255    1.5718   -2.0282 H         1 <0>         0.1213
     37 H7         -0.6731    1.5318    2.0463 H         1 <0>         0.1237
     38 H8         -0.6936    3.9928    2.0581 H         1 <0>         0.1204
     39 H9         -2.2205   -2.1824   -1.2982 H         1 <0>         0.4281
     40 H10        -2.4806   -3.1746    1.1362 H         1 <0>         0.1537
     41 H11        -2.1848   -3.5251    3.7929 H         1 <0>         0.1516
     42 H12         0.3299    0.4392    4.6404 H         1 <0>         0.1480
     43 H13         0.9987    0.8183    6.9761 H         1 <0>         0.1481
     44 H14        -1.6211   -3.1980    5.8058 H         1 <0>         0.1477
@<TRIPOS>BOND
     1    1    2 1
     2    1   32 1
     3    1   33 1
     4    1   34 1
     5    2    7 ar
     6    2    3 ar
     7    3    4 ar
     8    3   35 1
     9    4    5 ar
    10    4   36 1
    11    5    6 ar
    12    5    8 1
    13    6    7 ar
    14    6   37 1
    15    7   38 1
    16    8   15 1
    17    8    9 1
    18    9   10 1
    19    9   11 1
    20    9   19 1
    21   11   12 am
    22   11   39 1
    23   12   13 2
    24   12   14 1
    25   14   15 2
    26   14   17 1
    27   15   16 1
    28   17   18 3
    29   19   23 1
    30   19   20 2
    31   20   21 1
    32   20   40 1
    33   21   22 2
    34   21   41 1
    35   22   23 1
    36   22   24 1
    37   24   29 ar
    38   24   25 ar
    39   25   26 ar
    40   25   42 1
    41   26   27 ar
    42   26   43 1
    43   27   28 ar
    44   27   31 1
    45   28   29 ar
    46   28   30 1
    47   29   44 1
@<TRIPOS>MOLECULE
ZINC35223928
   38    41     0     0     0
SMALL
USER_CHARGES

@<TRIPOS>ATOM
      1 C1          0.9362    1.1975    0.1512 C.ar      1 <0>        -0.1078
      2 C2          2.2223    1.7014    0.2006 C.ar      1 <0>        -0.0938
      3 C3          3.3031    0.8382    0.2150 C.ar      1 <0>        -0.0912
      4 C4          3.0961   -0.5291    0.1801 C.ar      1 <0>        -0.0898
      5 C5          1.8097   -1.0321    0.1307 C.ar      1 <0>        -0.0847
      6 C6          0.7299   -0.1690    0.1163 C.ar      1 <0>        -0.0847
      7 C7         -0.6725   -0.7179    0.0625 C.3       1 <0>         0.2081
      8 H1         -1.3577    0.0544    0.4120 H         1 <0>         0.0896
      9 C8         -1.0037   -1.0358   -1.3655 C.3       1 <0>        -0.0889
     10 H2         -0.5734   -0.2695   -2.0102 H         1 <0>         0.0900
     11 C9         -2.5251   -1.1017   -1.6116 C.3       1 <0>        -0.0956
     12 C10        -2.6617   -2.0638   -2.7731 C.2       1 <0>        -0.1644
     13 C11        -1.5738   -2.7735   -2.9224 C.2       1 <0>        -0.1531
     14 C12        -0.5624   -2.4097   -1.8633 C.3       1 <0>         0.0004
     15 H3          0.4303   -2.3504   -2.3095 H         1 <0>         0.0799
     16 C13        -0.6078   -3.4665   -0.7953 C.ar      1 <0>        -0.1652
     17 C14        -0.5237   -4.7951   -1.1822 C.ar      1 <0>        -0.0486
     18 C15        -0.5705   -5.8123   -0.2440 C.ar      1 <0>        -0.1499
     19 C16        -0.7056   -5.5185    1.0954 C.ar      1 <0>        -0.0253
     20 C17        -0.7897   -4.1848    1.5052 C.ar      1 <0>        -0.1846
     21 C18        -0.7306   -3.1543    0.5469 C.ar      1 <0>         0.2651
     22 N1         -0.7574   -1.8482    0.9635 N.pl3     1 <0>        -0.7129
     23 C19        -0.9397   -3.8589    2.9312 C.2       1 <0>         0.5293
     24 O1         -0.1357   -4.2918    3.7456 O.co2     1 <0>        -0.6801
     25 O2         -1.8686   -3.1547    3.3034 O.co2     1 <0>        -0.6870
     26 Br1        -0.4491   -7.6144   -0.8039 Br        1 <0>        -0.0839
     27 Br2         5.0629    1.5270    0.2820 Br        1 <0>        -0.0607
     28 H4          0.0922    1.8713    0.1443 H         1 <0>         0.1316
     29 H5          2.3835    2.7690    0.2275 H         1 <0>         0.1304
     30 H6          3.9397   -1.2034    0.1910 H         1 <0>         0.1312
     31 H7          1.6480   -2.0996    0.1034 H         1 <0>         0.1333
     32 H8         -3.0389   -1.4886   -0.7316 H         1 <0>         0.0820
     33 H9         -2.9123   -0.1190   -1.8810 H         1 <0>         0.0714
     34 H10        -3.5405   -2.1523   -3.3947 H         1 <0>         0.1225
     35 H11        -1.4285   -3.5218   -3.6875 H         1 <0>         0.1256
     36 H12        -0.4207   -5.0399   -2.2290 H         1 <0>         0.1194
     37 H13        -0.7466   -6.3143    1.8244 H         1 <0>         0.1258
     38 H14        -0.8672   -1.6778    1.9121 H         1 <0>         0.4168
@<TRIPOS>BOND
     1    1    6 ar
     2    1    2 ar
     3    1   28 1
     4    2    3 ar
     5    2   29 1
     6    3    4 ar
     7    3   27 1
     8    4    5 ar
     9    4   30 1
    10    5    6 ar
    11    5   31 1
    12    6    7 1
    13    7    8 1
    14    7   22 1
    15    7    9 1
    16    9   10 1
    17    9   14 1
    18    9   11 1
    19   11   12 1
    20   11   32 1
    21   11   33 1
    22   12   13 2
    23   12   34 1
    24   13   14 1
    25   13   35 1
    26   14   15 1
    27   14   16 1
    28   16   21 ar
    29   16   17 ar
    30   17   18 ar
    31   17   36 1
    32   18   19 ar
    33   18   26 1
    34   19   20 ar
    35   19   37 1
    36   20   21 ar
    37   20   23 1
    38   21   22 1
    39   22   38 1
    40   23   24 2
    41   23   25 1
@<TRIPOS>MOLECULE
ZINC39887195
   44    47     0     0     0
SMALL
USER_CHARGES

@<TRIPOS>ATOM
      1 C1          0.1433   -2.8566    2.4785 C.3       1 <0>        -0.1118
      2 C2          0.0534   -2.1025    1.1768 C.ar      1 <0>        -0.0763
      3 C3          0.1300   -2.7827   -0.0229 C.ar      1 <0>        -0.1240
      4 C4          0.0470   -2.0917   -1.2176 C.ar      1 <0>        -0.1124
      5 C5         -0.1128   -0.7178   -1.2158 C.ar      1 <0>        -0.1274
      6 C6         -0.1896   -0.0318   -0.0199 C.ar      1 <0>        -0.0670
      7 C7         -0.1124   -0.7237    1.1822 C.ar      1 <0>         0.1565
      8 N1         -0.1960   -0.0328    2.3950 N.pl3     1 <0>        -0.5694
      9 C8         -1.4852    0.1261    3.0761 C.3       1 <0>         0.4687
     10 H1         -2.2136   -0.5556    2.6370 H         1 <0>         0.1218
     11 N2         -1.3326   -0.1759    4.5006 N.am      1 <0>        -0.7342
     12 C9         -0.1652    0.0614    5.1311 C.2       1 <0>         0.6005
     13 O1         -0.0596   -0.1526    6.3253 O.2       1 <0>        -0.5605
     14 C10         0.9760    0.5778    4.3717 C.2       1 <0>        -0.3245
     15 C11         0.9281    0.5040    2.9721 C.2       1 <0>         0.4537
     16 S1          2.2677    1.0876    1.9874 S.3       1 <0>        -0.7725
     17 C12         2.1113    1.1379    5.0410 C.1       1 <0>         0.3376
     18 N3          3.0119    1.5823    5.5720 N.1       1 <0>        -0.4970
     19 C13        -1.9659    1.5452    2.9145 C.2       1 <0>        -0.0274
     20 C14        -2.6632    2.2473    3.8288 C.2       1 <0>        -0.1839
     21 C15        -2.9047    3.5207    3.2750 C.2       1 <0>        -0.1781
     22 C16        -2.3354    3.5253    2.0404 C.2       1 <0>         0.0164
     23 O2         -1.7653    2.3221    1.8372 O.3       1 <0>        -0.1332
     24 C17        -2.3371    4.6560    1.0889 C.ar      1 <0>        -0.0012
     25 C18        -3.5300    5.3139    0.7842 C.ar      1 <0>        -0.0719
     26 C19        -3.5253    6.3688   -0.1042 C.ar      1 <0>        -0.1109
     27 C20        -2.3405    6.7760   -0.6946 C.ar      1 <0>        -0.0186
     28 C21        -1.1537    6.1283   -0.3973 C.ar      1 <0>        -0.1051
     29 C22        -1.1441    5.0746    0.4950 C.ar      1 <0>        -0.0195
     30 Cl1         0.3458    4.2677    0.8727 Cl        1 <0>         0.0032
     31 Cl2        -2.3437    8.1040   -1.8127 Cl        1 <0>        -0.0603
     32 H2         -0.8608   -3.0728    2.8433 H         1 <0>         0.0658
     33 H3          0.6816   -3.7912    2.3206 H         1 <0>         0.0634
     34 H4          0.6743   -2.2512    3.2132 H         1 <0>         0.0713
     35 H5          0.2551   -3.8554   -0.0278 H         1 <0>         0.1201
     36 H6          0.1076   -2.6258   -2.1543 H         1 <0>         0.1179
     37 H7         -0.1772   -0.1811   -2.1507 H         1 <0>         0.1194
     38 H8         -0.3137    1.0411   -0.0192 H         1 <0>         0.1277
     39 H9         -2.0786   -0.5498    4.9951 H         1 <0>         0.4058
     40 H10        -2.9776    1.9000    4.8019 H         1 <0>         0.1511
     41 H11        -3.4392    4.3352    3.7411 H         1 <0>         0.1497
     42 H12        -4.4550    4.9972    1.2431 H         1 <0>         0.1460
     43 H13        -4.4478    6.8783   -0.3404 H         1 <0>         0.1433
     44 H14        -0.2330    6.4505   -0.8608 H         1 <0>         0.1472
@<TRIPOS>BOND
     1    1    2 1
     2    1   32 1
     3    1   33 1
     4    1   34 1
     5    2    7 ar
     6    2    3 ar
     7    3    4 ar
     8    3   35 1
     9    4    5 ar
    10    4   36 1
    11    5    6 ar
    12    5   37 1
    13    6    7 ar
    14    6   38 1
    15    7    8 1
    16    8   15 1
    17    8    9 1
    18    9   10 1
    19    9   11 1
    20    9   19 1
    21   11   12 am
    22   11   39 1
    23   12   13 2
    24   12   14 1
    25   14   15 2
    26   14   17 1
    27   15   16 1
    28   17   18 3
    29   19   23 1
    30   19   20 2
    31   20   21 1
    32   20   40 1
    33   21   22 2
    34   21   41 1
    35   22   23 1
    36   22   24 1
    37   24   29 ar
    38   24   25 ar
    39   25   26 ar
    40   25   42 1
    41   26   27 ar
    42   26   43 1
    43   27   28 ar
    44   27   31 1
    45   28   29 ar
    46   28   44 1
    47   29   30 1
@<TRIPOS>MOLECULE
ZINC40475472
   41    45     0     0     0
SMALL
USER_CHARGES

@<TRIPOS>ATOM
      1 C1          2.1259    1.4954    0.6313 C.ar      1 <0>        -0.1323
      2 C2          1.1002    2.0831   -0.0863 C.ar      1 <0>        -0.1018
      3 C3          0.1613    1.2950   -0.7228 C.ar      1 <0>        -0.1520
      4 C4          0.2482   -0.0874   -0.6423 C.ar      1 <0>         0.1222
      5 C5          1.2783   -0.6745    0.0777 C.ar      1 <0>        -0.1170
      6 C6          2.2147    0.1183    0.7131 C.ar      1 <0>        -0.0881
      7 C7          1.3755   -2.1757    0.1677 C.3       1 <0>         0.0887
      8 H1          2.4203   -2.4706    0.2642 H         1 <0>         0.1081
      9 C8          0.7879   -2.7945   -1.0658 C.2       1 <0>        -0.2881
     10 C9         -0.4445   -3.3530   -1.2568 C.2       1 <0>         0.1386
     11 N1         -0.6539   -3.8455   -2.4760 N.2       1 <0>        -0.5576
     12 C10         0.2595   -3.7736   -3.4205 C.2       1 <0>         0.2835
     13 S1          0.1657   -4.3594   -5.0797 S.3       1 <0>        -0.7204
     14 S2          1.5403   -2.9868   -2.6602 S.3       1 <0>         0.0357
     15 S3         -1.6512   -3.3790    0.0605 S.3       1 <0>         0.0176
     16 C11        -0.8867   -2.2099    1.2143 C.3       1 <0>        -0.1399
     17 H2         -0.9618   -1.1848    0.8517 H         1 <0>         0.1630
     18 C12         0.5968   -2.6644    1.3646 C.3       1 <0>        -0.1157
     19 H3          0.6413   -3.7526    1.4093 H         1 <0>         0.1420
     20 C13         0.9187   -2.1100    2.7167 C.2       1 <0>         0.5588
     21 O1          2.0012   -1.7322    3.1104 O.2       1 <0>        -0.4456
     22 N2         -0.2474   -2.1157    3.4141 N.am      1 <0>        -0.5350
     23 C14        -1.3619   -2.3300    2.6364 C.2       1 <0>         0.5683
     24 O2         -2.4888   -2.5776    3.0085 O.2       1 <0>        -0.4314
     25 C15        -0.3153   -1.9025    4.7985 C.ar      1 <0>         0.1336
     26 C16         0.8449   -1.6656    5.5231 C.ar      1 <0>        -0.1303
     27 C17         0.7755   -1.4560    6.8865 C.ar      1 <0>        -0.0874
     28 C18        -0.4492   -1.4819    7.5302 C.ar      1 <0>        -0.0481
     29 C19        -1.6070   -1.7183    6.8101 C.ar      1 <0>        -0.0865
     30 C20        -1.5433   -1.9224    5.4456 C.ar      1 <0>        -0.1323
     31 Cl1        -0.5332   -1.2180    9.2440 Cl        1 <0>        -0.0703
     32 O3         -0.6746   -0.8650   -1.2673 O.3       1 <0>        -0.4853
     33 H4          2.8614    2.1133    1.1248 H         1 <0>         0.1235
     34 H5          1.0330    3.1592   -0.1487 H         1 <0>         0.1236
     35 H6         -0.6400    1.7545   -1.2825 H         1 <0>         0.1281
     36 H7          3.0167   -0.3383    1.2741 H         1 <0>         0.1325
     37 H8          1.8010   -1.6457    5.0212 H         1 <0>         0.1633
     38 H9          1.6779   -1.2720    7.4507 H         1 <0>         0.1408
     39 H10        -2.5616   -1.7384    7.3147 H         1 <0>         0.1410
     40 H11        -2.4476   -2.1020    4.8832 H         1 <0>         0.1611
     41 H12        -0.4844   -1.0271   -2.2015 H         1 <0>         0.3912
@<TRIPOS>BOND
     1    1    6 ar
     2    1    2 ar
     3    1   33 1
     4    2    3 ar
     5    2   34 1
     6    3    4 ar
     7    3   35 1
     8    4    5 ar
     9    4   32 1
    10    5    6 ar
    11    5    7 1
    12    6   36 1
    13    7    8 1
    14    7   18 1
    15    7    9 1
    16    9   14 1
    17    9   10 2
    18   10   11 1
    19   10   15 1
    20   11   12 2
    21   12   13 1
    22   12   14 1
    23   15   16 1
    24   16   17 1
    25   16   23 1
    26   16   18 1
    27   18   19 1
    28   18   20 1
    29   20   21 2
    30   20   22 am
    31   22   23 am
    32   22   25 1
    33   23   24 2
    34   25   30 ar
    35   25   26 ar
    36   26   27 ar
    37   26   37 1
    38   27   28 ar
    39   27   38 1
    40   28   29 ar
    41   28   31 1
    42   29   30 ar
    43   29   39 1
    44   30   40 1
    45   32   41 1
@<TRIPOS>MOLECULE
ZINC18181671
   41    44     0     0     0
SMALL
USER_CHARGES

@<TRIPOS>ATOM
      1 C1         -0.0173    1.4248    0.0099 C.3       1 <0>         0.0253
      2 O1          0.0021   -0.0041    0.0020 O.3       1 <0>        -0.3143
      3 C2          0.6055   -0.6068   -1.0551 C.ar      1 <0>         0.1837
      4 C3          1.1726    0.1657   -2.0618 C.ar      1 <0>        -0.2489
      5 C4          1.7863   -0.4392   -3.1371 C.ar      1 <0>        -0.0147
      6 C5          1.8399   -1.8307   -3.2170 C.ar      1 <0>        -0.1228
      7 C6          1.2688   -2.6080   -2.2025 C.ar      1 <0>         0.2121
      8 C7          0.6587   -1.9909   -1.1237 C.ar      1 <0>        -0.2537
      9 O2          1.3173   -3.9632   -2.2739 O.3       1 <0>        -0.2663
     10 C8          0.7138   -4.6913   -1.2026 C.3       1 <0>         0.0181
     11 C9          2.4981   -2.4836   -4.3713 C.ar      1 <0>         0.2141
     12 C10         3.0719   -1.7031   -5.3800 C.ar      1 <0>        -0.1311
     13 C11         3.6802   -2.2932   -6.4467 C.ar      1 <0>        -0.0937
     14 C12         3.7243   -3.7086   -6.5216 C.ar      1 <0>        -0.1121
     15 C13         4.3277   -4.5312   -7.5803 C.2       1 <0>         0.1540
     16 C14         4.2358   -5.9015   -7.4171 C.2       1 <0>        -0.2403
     17 C15         4.7729   -6.7993   -8.3594 C.2       1 <0>         0.4293
     18 O3          4.6797   -8.0079   -8.1949 O.2       1 <0>        -0.5828
     19 C16         5.4203   -6.2749   -9.4970 C.2       1 <0>        -0.4436
     20 C17         5.5005   -4.9234   -9.6395 C.2       1 <0>         0.4725
     21 N1          4.9784   -4.0740   -8.7245 N.pl3     1 <0>        -0.6057
     22 H1          5.0601   -3.1184   -8.8691 H         1 <0>         0.3894
     23 O4          6.1201   -4.4144  -10.7282 O.3       1 <0>        -0.6992
     24 S1          3.3648   -6.1197   -5.8874 S.3       1 <0>         0.1726
     25 C18         3.1208   -4.4132   -5.4609 C.ar      1 <0>         0.1026
     26 N2          2.5469   -3.8089   -4.4435 N.ar      1 <0>        -0.3917
     27 C19         4.2981   -1.4522   -7.5339 C.3       1 <0>         0.4999
     28 F1          4.1239   -0.0975   -7.2313 F         1 <0>        -0.1687
     29 F2          5.6647   -1.7378   -7.6246 F         1 <0>        -0.1615
     30 F3          3.6794   -1.7406   -8.7551 F         1 <0>        -0.1615
     31 H2          1.0053    1.8021    0.0021 H         1 <0>         0.0591
     32 H3         -0.5445    1.7859   -0.8732 H         1 <0>         0.0591
     33 H4         -0.5275    1.7763    0.9067 H         1 <0>         0.1010
     34 H5          1.1319    1.2432   -2.0012 H         1 <0>         0.1358
     35 H6          2.2254    0.1640   -3.9180 H         1 <0>         0.1398
     36 H7          0.2207   -2.5877   -0.3372 H         1 <0>         0.1418
     37 H8          1.2032   -4.4297   -0.2644 H         1 <0>         0.0559
     38 H9         -0.3449   -4.4388   -1.1428 H         1 <0>         0.0559
     39 H10         0.8226   -5.7607   -1.3834 H         1 <0>         0.1046
     40 H11         3.0323   -0.6259   -5.3131 H         1 <0>         0.1546
     41 H12         5.8447   -6.9329  -10.2408 H         1 <0>         0.1314
@<TRIPOS>BOND
     1    1    2 1
     2    1   31 1
     3    1   32 1
     4    1   33 1
     5    2    3 1
     6    3    8 ar
     7    3    4 ar
     8    4    5 ar
     9    4   34 1
    10    5    6 ar
    11    5   35 1
    12    6    7 ar
    13    6   11 1
    14    7    8 ar
    15    7    9 1
    16    8   36 1
    17    9   10 1
    18   10   37 1
    19   10   38 1
    20   10   39 1
    21   11   26 ar
    22   11   12 ar
    23   12   13 ar
    24   12   40 1
    25   13   14 ar
    26   13   27 1
    27   14   25 ar
    28   14   15 1
    29   15   21 1
    30   15   16 2
    31   16   17 1
    32   16   24 1
    33   17   18 2
    34   17   19 1
    35   19   20 2
    36   19   41 1
    37   20   21 1
    38   20   23 1
    39   21   22 1
    40   24   25 1
    41   25   26 ar
    42   27   28 1
    43   27   29 1
    44   27   30 1
@<TRIPOS>MOLECULE
ZINC13429598
   38    40     0     0     0
SMALL
USER_CHARGES
7-[[(E)-3-(5-bromo-2-fluoro-phenyl)prop-2-enoyl]amino]-2,3-dihydro-1,4-benzodioxine-6-carboxylic acid
@<TRIPOS>ATOM
      1 C1         10.6755    1.0938    1.7298 C.ar      1 <0>        -0.0579
      2 C2         10.5248    2.2353    2.4961 C.ar      1 <0>        -0.1487
      3 C3          9.3254    2.9215    2.4909 C.ar      1 <0>         0.1328
      4 C4          8.2579    2.4511    1.7147 C.ar      1 <0>        -0.0866
      5 C5          8.4205    1.2961    0.9429 C.ar      1 <0>        -0.0497
      6 C6          9.6262    0.6263    0.9556 C.ar      1 <0>        -0.1031
      7 Br1         9.8473   -0.9359   -0.0868 Br        1 <0>        -0.0367
      8 C7          6.9756    3.1713    1.7069 C.2       1 <0>        -0.0449
      9 C8          5.9518    2.7180    0.9537 C.2       1 <0>        -0.1709
     10 C9          4.6764    3.4343    0.9460 C.2       1 <0>         0.5380
     11 O1          4.5387    4.4392    1.6189 O.2       1 <0>        -0.5368
     12 N1          3.6539    2.9816    0.1937 N.am      1 <0>        -0.6338
     13 C10         2.4777    3.7216    0.0995 C.ar      1 <0>         0.1829
     14 C11         2.5253    5.1067    0.1026 C.ar      1 <0>        -0.1330
     15 C12         1.3555    5.8459    0.0083 C.ar      1 <0>         0.0674
     16 C13         0.1236    5.1989   -0.0915 C.ar      1 <0>         0.0155
     17 C14         0.0640    3.8197   -0.0993 C.ar      1 <0>        -0.0495
     18 C15         1.2392    3.0670    0.0015 C.ar      1 <0>        -0.1364
     19 C16         1.1782    1.5972   -0.0014 C.2       1 <0>         0.5017
     20 O2          2.2047    0.9463   -0.0092 O.co2     1 <0>        -0.6326
     21 O3         -1.0319    5.9142   -0.1890 O.3       1 <0>        -0.3075
     22 C17        -0.9691    7.2926    0.1925 C.3       1 <0>         0.0209
     23 C18         0.2768    7.9132   -0.4538 C.3       1 <0>         0.0216
     24 O4          1.4273    7.2038    0.0174 O.3       1 <0>        -0.3074
     25 F1          9.1809    4.0394    3.2357 F         1 <0>        -0.1248
     26 H1         11.6167    0.5642    1.7348 H         1 <0>         0.1444
     27 H2         11.3479    2.5935    3.0966 H         1 <0>         0.1481
     28 H3          7.6038    0.9294    0.3388 H         1 <0>         0.1514
     29 H4          6.8533    4.0629    2.3040 H         1 <0>         0.1450
     30 H5          6.0741    1.8264    0.3566 H         1 <0>         0.1353
     31 H6          3.7371    2.1404   -0.2821 H         1 <0>         0.4291
     32 H7          3.4767    5.6123    0.1784 H         1 <0>         0.1419
     33 H8         -0.8908    3.3213   -0.1791 H         1 <0>         0.1478
     34 H9         -0.8981    7.3709    1.2774 H         1 <0>         0.0728
     35 H10        -1.8616    7.8118   -0.1565 H         1 <0>         0.1160
     36 H11         0.3521    8.9636   -0.1726 H         1 <0>         0.1159
     37 H12         0.2106    7.8270   -1.5383 H         1 <0>         0.0739
     38 O5         -0.0161    0.9722    0.0045 O.co2     1 <0>        -0.7421
@<TRIPOS>BOND
     1    1    6 ar
     2    1    2 ar
     3    1   26 1
     4    2    3 ar
     5    2   27 1
     6    3    4 ar
     7    3   25 1
     8    4    5 ar
     9    4    8 1
    10    5    6 ar
    11    5   28 1
    12    6    7 1
    13    8    9 2
    14    8   29 1
    15    9   10 1
    16    9   30 1
    17   10   11 2
    18   10   12 am
    19   12   13 1
    20   12   31 1
    21   13   18 ar
    22   13   14 ar
    23   14   15 ar
    24   14   32 1
    25   15   24 1
    26   15   16 ar
    27   16   17 ar
    28   16   21 1
    29   17   18 ar
    30   17   33 1
    31   18   19 1
    32   19   20 2
    33   19   38 1
    34   21   22 1
    35   22   23 1
    36   22   34 1
    37   22   35 1
    38   23   24 1
    39   23   36 1
    40   23   37 1
@<TRIPOS>MOLECULE
ZINC32116879
   37    38     0     0     0
SMALL
USER_CHARGES
2-[(N'Z)-N'-[(3-bromo-5-chloro-4-hydroxy-phenyl)methylene]hydrazino]-4-(methoxymethyl)-6-methyl-pyridine-3-carbonitrile
@<TRIPOS>ATOM
      1 C1         -2.1715    0.9763   -0.5500 C.3       1 <0>        -0.1070
      2 C2         -1.0486    1.7714    0.0646 C.ar      1 <0>         0.2036
      3 C3          0.0673    1.1099    0.5464 C.ar      1 <0>        -0.2181
      4 C4          1.1025    1.8379    1.1061 C.ar      1 <0>         0.0458
      5 C5          0.9779    3.2306    1.1693 C.ar      1 <0>        -0.1623
      6 C6         -0.1893    3.8293    0.6633 C.ar      1 <0>         0.4738
      7 N1         -1.1498    3.0839    0.1378 N.ar      1 <0>        -0.5098
      8 N2         -0.3351    5.2041    0.7143 N.pl3     1 <0>        -0.5679
      9 N3         -1.4967    5.8045    0.2111 N.2       1 <0>        -0.2660
     10 C7         -1.5845    7.0982    0.1500 C.2       1 <0>         0.1495
     11 C8         -0.3609    7.9205    0.1424 C.ar      1 <0>        -0.2508
     12 C9          0.8829    7.3240   -0.0820 C.ar      1 <0>        -0.0659
     13 C10         2.0249    8.0971   -0.0887 C.ar      1 <0>        -0.1526
     14 C11         1.9400    9.4674    0.1269 C.ar      1 <0>         0.3089
     15 C12         0.7058   10.0642    0.3498 C.ar      1 <0>        -0.2182
     16 C13        -0.4420    9.2991    0.3538 C.ar      1 <0>         0.0032
     17 Br1         0.5980   11.9296    0.6411 Br        1 <0>        -0.0776
     18 O1          3.0678   10.2257    0.1190 O.3       1 <0>        -0.6474
     19 Cl1         3.5706    7.3576   -0.3673 Cl        1 <0>        -0.0885
     20 C14         2.0198    4.0308    1.7391 C.1       1 <0>         0.2396
     21 N4          2.8463    4.6656    2.1912 N.1       1 <0>        -0.3971
     22 C15         2.3335    1.1481    1.6352 C.3       1 <0>         0.0944
     23 O2          2.2055   -0.2631    1.4499 O.3       1 <0>        -0.3813
     24 C16         3.3259   -1.0150    1.9205 C.3       1 <0>         0.0279
     25 H1         -1.9181   -0.0939   -0.5274 H         1 <0>         0.0771
     26 H2         -2.3197    1.2961   -1.5920 H         1 <0>         0.0822
     27 H3         -3.0963    1.1463    0.0208 H         1 <0>         0.0825
     28 H4          0.1318    0.0338    0.4820 H         1 <0>         0.1479
     29 H5          0.4609    5.8258    1.1499 H         1 <0>         0.4259
     30 H6         -2.5719    7.5809    0.1039 H         1 <0>         0.1785
     31 H7          0.9496    6.2593   -0.2502 H         1 <0>         0.1230
     32 H8         -1.4016    9.7647    0.5232 H         1 <0>         0.1191
     33 H9          3.2188    1.5104    1.0921 H         1 <0>         0.0746
     34 H10         2.4452    1.3685    2.7071 H         1 <0>         0.0740
     35 H11         3.1497   -2.0860    1.7420 H         1 <0>         0.0909
     36 H12         3.4584   -0.8398    2.9983 H         1 <0>         0.0438
     37 H13         4.2320   -0.6979    1.3834 H         1 <0>         0.0442
@<TRIPOS>BOND
     1    1    2 1
     2    1   25 1
     3    1   26 1
     4    1   27 1
     5    2    7 ar
     6    2    3 ar
     7    3    4 ar
     8    3   28 1
     9    4    5 ar
    10    4   22 1
    11    5    6 ar
    12    5   20 1
    13    6    7 ar
    14    6    8 1
    15    8    9 1
    16    8   29 1
    17    9   10 2
    18   10   11 1
    19   10   30 1
    20   11   16 ar
    21   11   12 ar
    22   12   13 ar
    23   12   31 1
    24   13   14 ar
    25   13   19 1
    26   14   15 ar
    27   14   18 1
    28   15   16 ar
    29   15   17 1
    30   16   32 1
    31   20   21 3
    32   22   23 1
    33   22   33 1
    34   22   34 1
    35   23   24 1
    36   24   35 1
    37   24   36 1
    38   24   37 1
@<TRIPOS>MOLECULE
ZINC39453838
   41    45     0     0     0
SMALL
USER_CHARGES

@<TRIPOS>ATOM
      1 C1         -0.0167    1.3775    0.0096 C.ar      1 <0>        -0.2521
      2 C2          1.1694    2.0888    0.0021 C.ar      1 <0>        -0.0613
      3 C3          2.3800    1.4215   -0.0131 C.ar      1 <0>        -0.2585
      4 C4          2.4079    0.0363   -0.0208 C.ar      1 <0>         0.2957
      5 C5          1.2134   -0.6811   -0.0132 C.ar      1 <0>        -0.0400
      6 C6          0.0021   -0.0041    0.0020 C.ar      1 <0>        -0.0391
      7 N1          1.2351   -2.0814   -0.0214 N.am      1 <0>        -0.4045
      8 C7          1.2517   -2.7602    1.1928 C.2       1 <0>         0.0602
      9 C8          1.2674   -4.1404    1.2348 C.2       1 <0>         0.1472
     10 C9          1.2747   -4.9131   -0.0193 C.ar      1 <0>         0.2332
     11 C10         1.2591   -4.1941   -1.2441 C.ar      1 <0>        -0.1676
     12 C11         1.2337   -2.7238   -1.2024 C.2       1 <0>         0.5462
     13 O1          1.2153   -2.0873   -2.2398 O.2       1 <0>        -0.5076
     14 C12         1.2626   -4.8726   -2.4546 C.ar      1 <0>         0.0313
     15 C13         1.2821   -6.2745   -2.4176 C.ar      1 <0>        -0.1584
     16 C14         1.2994   -6.9497   -1.1173 C.ar      1 <0>         0.1869
     17 N2          1.2947   -6.2330    0.0061 N.ar      1 <0>        -0.4730
     18 C15         1.3204   -8.3560   -1.0911 C.ar      1 <0>        -0.1097
     19 C16         1.3228   -9.0510   -2.2613 C.ar      1 <0>        -0.0639
     20 C17         1.3054   -8.4099   -3.4958 C.ar      1 <0>        -0.1675
     21 C18         1.2859   -7.0491   -3.5921 C.ar      1 <0>         0.1431
     22 F1          1.2690   -6.4512   -4.8035 F         1 <0>        -0.1267
     23 N3          1.2703   -4.7932    2.4524 N.pl3     1 <0>        -0.7061
     24 C19         0.6811   -4.1069    3.6126 C.3       1 <0>         0.2365
     25 H1          0.8774   -4.6810    4.5181 H         1 <0>         0.1358
     26 C20         1.3264   -2.7213    3.7289 C.3       1 <0>        -0.1738
     27 C21         1.2482   -2.0208    2.3977 C.2       1 <0>         0.3842
     28 O2          1.1817   -0.8085    2.3591 O.2       1 <0>        -0.3899
     29 Cl1        -1.0979   -3.9324    3.3769 Cl        1 <0>        -0.1952
     30 O3          3.5977   -0.6214   -0.0361 O.3       1 <0>        -0.7276
     31 H2         -0.9599    1.9033    0.0260 H         1 <0>         0.0953
     32 H3          1.1497    3.1686    0.0078 H         1 <0>         0.0930
     33 H4          3.3043    1.9802   -0.0192 H         1 <0>         0.0966
     34 H5         -0.9257   -0.5569    0.0079 H         1 <0>         0.0870
     35 H6          1.2503   -4.3391   -3.3936 H         1 <0>         0.1615
     36 H7          1.3349   -8.8813   -0.1476 H         1 <0>         0.1447
     37 H8          1.3389  -10.1305   -2.2307 H         1 <0>         0.1393
     38 H9          1.3081   -9.0028   -4.3985 H         1 <0>         0.1398
     39 H10         1.6507   -5.6812    2.5400 H         1 <0>         0.4213
     40 H11         0.7966   -2.1353    4.4799 H         1 <0>         0.1194
     41 H12         2.3707   -2.8299    4.0219 H         1 <0>         0.1244
@<TRIPOS>BOND
     1    1    6 ar
     2    1    2 ar
     3    1   31 1
     4    2    3 ar
     5    2   32 1
     6    3    4 ar
     7    3   33 1
     8    4    5 ar
     9    4   30 1
    10    5    6 ar
    11    5    7 1
    12    6   34 1
    13    7   12 am
    14    7    8 1
    15    8   27 1
    16    8    9 2
    17    9   10 1
    18    9   23 1
    19   10   17 ar
    20   10   11 ar
    21   11   12 1
    22   11   14 ar
    23   12   13 2
    24   14   15 ar
    25   14   35 1
    26   15   21 ar
    27   15   16 ar
    28   16   17 ar
    29   16   18 ar
    30   18   19 ar
    31   18   36 1
    32   19   20 ar
    33   19   37 1
    34   20   21 ar
    35   20   38 1
    36   21   22 1
    37   23   24 1
    38   23   39 1
    39   24   25 1
    40   24   26 1
    41   24   29 1
    42   26   27 1
    43   26   40 1
    44   26   41 1
    45   27   28 2
@<TRIPOS>MOLECULE
ZINC14500298
   77    81     0     0     0
SMALL
USER_CHARGES

@<TRIPOS>ATOM
      1 C1         -0.9643    1.4186    0.0583 C.3       1 <0>        -0.1526
      2 C2         -0.7445   -0.0883    0.0118 C.3       1 <0>        -0.0334
      3 C3         -0.6633   -0.4815   -1.4762 C.3       1 <0>        -0.1127
      4 C4          0.5279    0.2287   -2.1176 C.3       1 <0>        -0.1497
      5 C5          1.8274   -0.2223   -1.4655 C.3       1 <0>         0.1188
      6 H1          1.9915   -1.2828   -1.6915 H         1 <0>         0.0473
      7 C6          1.8217   -0.0400    0.0520 C.3       1 <0>        -0.0374
      8 C7          0.5421   -0.5388    0.6848 C.3       1 <0>        -0.0606
      9 H2          0.5645   -1.6558    0.5817 H         1 <0>         0.0652
     10 C8          0.4685   -0.2746    2.1856 C.3       1 <0>        -0.1154
     11 C9         -0.6595   -1.1467    2.7693 C.3       1 <0>        -0.1080
     12 C10        -2.0070   -0.7362    2.1660 C.3       1 <0>        -0.0195
     13 C11        -1.9244   -0.8295    0.6471 C.3       1 <0>        -0.0197
     14 H3         -2.8413   -0.4341    0.2215 H         1 <0>         0.0697
     15 C12        -1.7981   -2.2851    0.2326 C.2       1 <0>        -0.1897
     16 C13        -2.6988   -3.1480    0.7295 C.2       1 <0>        -0.0896
     17 C14        -3.6968   -2.5065    1.6281 C.2       1 <0>        -0.0803
     18 C15        -4.9800   -2.7667    1.4337 C.2       1 <0>        -0.0754
     19 C16        -5.3681   -3.6939    0.3051 C.3       1 <0>        -0.0562
     20 C17        -6.3415   -4.7616    0.7993 C.3       1 <0>        -0.1276
     21 C18        -7.5725   -4.0989    1.4214 C.3       1 <0>        -0.1384
     22 C19        -7.1347   -3.1971    2.5484 C.2       1 <0>         0.3869
     23 O1         -7.6491   -3.2861    3.6362 O.2       1 <0>        -0.4574
     24 C20        -6.0522   -2.1760    2.3037 C.3       1 <0>        -0.0634
     25 C21        -5.4681   -1.7098    3.6321 C.3       1 <0>        -0.1045
     26 C22        -4.2472   -0.8178    3.3711 C.3       1 <0>        -0.1021
     27 C23        -3.1411   -1.6162    2.7009 C.3       1 <0>         0.0002
     28 C24        -2.5755   -2.5527    3.7749 C.3       1 <0>        -0.1414
     29 C25        -6.6820   -0.9844    1.5797 C.3       1 <0>        -0.1301
     30 C26        -6.7788   -5.6284   -0.3855 C.3       1 <0>        -0.1206
     31 C27        -5.6594   -5.6304    1.8243 C.2       1 <0>         0.5036
     32 O2         -6.3109   -6.1481    2.7153 O.co2     1 <0>        -0.6932
     33 O3         -4.4559   -5.8157    1.7626 O.co2     1 <0>        -0.6858
     34 C28        -2.2918    0.7015    2.6251 C.3       1 <0>        -0.1533
     35 C29         2.1347    1.4136    0.4048 C.3       1 <0>        -0.1319
     36 C30         2.9926   -0.8971    0.5962 C.3       1 <0>        -0.1477
     37 O4          2.9178    0.5253   -2.0197 O.3       1 <0>        -0.5671
     38 H4         -0.2537    1.9101   -0.6063 H         1 <0>         0.0593
     39 H5         -1.9804    1.6477   -0.2628 H         1 <0>         0.0512
     40 H6         -0.8159    1.7762    1.0773 H         1 <0>         0.0642
     41 H7         -0.5181   -1.5544   -1.5683 H         1 <0>         0.0704
     42 H8         -1.5849   -0.1866   -1.9720 H         1 <0>         0.0648
     43 H9          0.5576   -0.0531   -3.1826 H         1 <0>         0.0526
     44 H10         0.4249    1.3062   -2.0726 H         1 <0>         0.0745
     45 H11         1.4011   -0.5827    2.6689 H         1 <0>         0.0567
     46 H12         0.2938    0.7684    2.4052 H         1 <0>         0.0664
     47 H13        -0.4296   -2.1800    2.5146 H         1 <0>         0.0689
     48 H14        -0.6564   -0.9891    3.8458 H         1 <0>         0.0623
     49 H15        -1.0054   -2.6263   -0.4160 H         1 <0>         0.1117
     50 H16        -2.6949   -4.2049    0.5035 H         1 <0>         0.1361
     51 H17        -5.8410   -3.1163   -0.4900 H         1 <0>         0.0516
     52 H18        -4.4805   -4.1826   -0.0941 H         1 <0>         0.0848
     53 H19        -8.0946   -3.5137    0.6634 H         1 <0>         0.0751
     54 H20        -8.2430   -4.8676    1.8084 H         1 <0>         0.0899
     55 H21        -6.2207   -1.1245    4.1707 H         1 <0>         0.0638
     56 H22        -5.1910   -2.5664    4.2404 H         1 <0>         0.0705
     57 H23        -4.5785    0.0050    2.7417 H         1 <0>         0.0673
     58 H24        -3.8930   -0.4427    4.3336 H         1 <0>         0.0649
     59 H25        -2.1529   -1.9610    4.5869 H         1 <0>         0.0491
     60 H26        -3.3743   -3.1845    4.1633 H         1 <0>         0.0572
     61 H27        -1.7972   -3.1784    3.3380 H         1 <0>         0.0590
     62 H28        -7.1165   -1.3197    0.6379 H         1 <0>         0.0601
     63 H29        -7.4618   -0.5499    2.2052 H         1 <0>         0.0560
     64 H30        -5.9165   -0.2346    1.3801 H         1 <0>         0.0666
     65 H31        -5.9049   -6.1059   -0.8285 H         1 <0>         0.0536
     66 H32        -7.4742   -6.3930   -0.0392 H         1 <0>         0.0517
     67 H33        -7.2686   -5.0031   -1.1319 H         1 <0>         0.0423
     68 H34        -1.4159    1.3228    2.4383 H         1 <0>         0.0625
     69 H35        -3.1431    1.0977    2.0715 H         1 <0>         0.0531
     70 H36        -2.5186    0.7043    3.6912 H         1 <0>         0.0571
     71 H37         1.4438    2.0721   -0.1215 H         1 <0>         0.0557
     72 H38         2.0266    1.5579    1.4798 H         1 <0>         0.0508
     73 H39         3.1571    1.6475    0.1079 H         1 <0>         0.0569
     74 H40         3.9301   -0.5481    0.1634 H         1 <0>         0.0573
     75 H41         3.0368   -0.8047    1.6814 H         1 <0>         0.0557
     76 H42         2.8345   -1.9413    0.3266 H         1 <0>         0.0495
     77 H43         3.0230    0.4179   -2.9749 H         1 <0>         0.3717
@<TRIPOS>BOND
     1    1    2 1
     2    1   38 1
     3    1   39 1
     4    1   40 1
     5    2    8 1
     6    2   13 1
     7    2    3 1
     8    3    4 1
     9    3   41 1
    10    3   42 1
    11    4    5 1
    12    4   43 1
    13    4   44 1
    14    5    6 1
    15    5    7 1
    16    5   37 1
    17    7    8 1
    18    7   35 1
    19    7   36 1
    20    8    9 1
    21    8   10 1
    22   10   11 1
    23   10   45 1
    24   10   46 1
    25   11   12 1
    26   11   47 1
    27   11   48 1
    28   12   27 1
    29   12   13 1
    30   12   34 1
    31   13   14 1
    32   13   15 1
    33   15   16 2
    34   15   49 1
    35   16   17 1
    36   16   50 1
    37   17   27 1
    38   17   18 2
    39   18   24 1
    40   18   19 1
    41   19   20 1
    42   19   51 1
    43   19   52 1
    44   20   21 1
    45   20   30 1
    46   20   31 1
    47   21   22 1
    48   21   53 1
    49   21   54 1
    50   22   23 2
    51   22   24 1
    52   24   25 1
    53   24   29 1
    54   25   26 1
    55   25   55 1
    56   25   56 1
    57   26   27 1
    58   26   57 1
    59   26   58 1
    60   27   28 1
    61   28   59 1
    62   28   60 1
    63   28   61 1
    64   29   62 1
    65   29   63 1
    66   29   64 1
    67   30   65 1
    68   30   66 1
    69   30   67 1
    70   31   32 2
    71   31   33 1
    72   34   68 1
    73   34   69 1
    74   34   70 1
    75   35   71 1
    76   35   72 1
    77   35   73 1
    78   36   74 1
    79   36   75 1
    80   36   76 1
    81   37   77 1
@<TRIPOS>MOLECULE
ZINC59403297
   50    53     0     0     0
SMALL
USER_CHARGES

@<TRIPOS>ATOM
      1 C1         -0.0184    1.5028    0.0103 C.3       1 <0>        -0.1138
      2 C2          0.0021   -0.0041    0.0020 C.ar      1 <0>        -0.0224
      3 C3          0.0062   -0.7122   -1.1885 C.ar      1 <0>        -0.0778
      4 N1          0.0237   -2.0305   -1.1745 N.ar      1 <0>        -0.1903
      5 N2          0.0379   -2.7105   -0.0868 N.ar      1 <0>        -0.3485
      6 C4          0.0360   -2.1348    1.1061 C.ar      1 <0>         0.3861
      7 O1          0.0513   -2.8919    2.2291 O.3       1 <0>        -0.6843
      8 C5          0.0233   -0.7330    1.1976 C.ar      1 <0>        -0.2570
      9 C6          0.0270   -0.0515    2.5094 C.2       1 <0>         0.6107
     10 O2         -1.0240    0.2147    3.0590 O.2       1 <0>        -0.5492
     11 N3          1.1957    0.2746    3.0961 N.am      1 <0>        -0.7268
     12 C7          1.1993    0.9499    4.3962 C.3       1 <0>         0.1271
     13 C8          2.6429    1.2042    4.8348 C.3       1 <0>        -0.1483
     14 C9          2.6467    1.9094    6.1926 C.3       1 <0>         0.1261
     15 N4          4.0289    2.1529    6.6125 N.pl3     1 <0>        -0.5789
     16 C10         4.6919    1.1783    7.3661 C.ar      1 <0>         0.1926
     17 C11         4.0082    0.4550    8.3308 C.ar      1 <0>        -0.1463
     18 C12         4.6713   -0.5063    9.0736 C.ar      1 <0>        -0.0811
     19 C13         6.0143   -0.7520    8.8612 C.ar      1 <0>        -0.1366
     20 C14         6.7075   -0.0351    7.8995 C.ar      1 <0>        -0.0611
     21 C15         6.0499    0.9255    7.1552 C.ar      1 <0>        -0.1479
     22 S1          6.9062    1.8560    5.9227 S.3       1 <0>         0.0017
     23 C16         6.0009    3.3719    5.8982 C.ar      1 <0>        -0.1477
     24 C17         4.6504    3.3509    6.2438 C.ar      1 <0>         0.1947
     25 C18         3.9300    4.5349    6.2226 C.ar      1 <0>        -0.1476
     26 C19         4.5522    5.7165    5.8588 C.ar      1 <0>        -0.0825
     27 C20         5.8905    5.7260    5.5153 C.ar      1 <0>        -0.1375
     28 C21         6.6157    4.5565    5.5403 C.ar      1 <0>        -0.0611
     29 C22        -0.0098    0.0256   -2.5024 C.3       1 <0>        -0.0717
     30 H1          1.0042    1.8801    0.0026 H         1 <0>         0.0699
     31 H2         -0.5455    1.8639   -0.8728 H         1 <0>         0.0737
     32 H3         -0.5286    1.8543    0.9071 H         1 <0>         0.0625
     33 H4          2.0344    0.0622    2.6576 H         1 <0>         0.3992
     34 H5          0.6720    1.9003    4.3134 H         1 <0>         0.0640
     35 H6          0.7009    0.3209    5.1338 H         1 <0>         0.0658
     36 H7          3.1702    0.2538    4.9176 H         1 <0>         0.0751
     37 H8          3.1413    1.8332    4.0972 H         1 <0>         0.0729
     38 H9          2.1194    2.8598    6.1098 H         1 <0>         0.0856
     39 H10         2.1483    1.2804    6.9301 H         1 <0>         0.0864
     40 H11         2.9585    0.6416    8.5030 H         1 <0>         0.1307
     41 H12         4.1355   -1.0679    9.8245 H         1 <0>         0.1301
     42 H13         6.5243   -1.5035    9.4457 H         1 <0>         0.1301
     43 H14         7.7574   -0.2259    7.7326 H         1 <0>         0.1326
     44 H15         2.8835    4.5354    6.4894 H         1 <0>         0.1302
     45 H16         3.9877    6.6371    5.8430 H         1 <0>         0.1291
     46 H17         6.3683    6.6525    5.2329 H         1 <0>         0.1294
     47 H18         7.6616    4.5651    5.2713 H         1 <0>         0.1316
     48 H19         1.0139    0.2174   -2.8239 H         1 <0>         0.0571
     49 H20        -0.5189   -0.5794   -3.2527 H         1 <0>         0.0634
     50 H21        -0.5360    0.9725   -2.3810 H         1 <0>         0.0599
@<TRIPOS>BOND
     1    1    2 1
     2    1   30 1
     3    1   31 1
     4    1   32 1
     5    2    8 ar
     6    2    3 ar
     7    3    4 ar
     8    3   29 1
     9    4    5 ar
    10    5    6 ar
    11    6    7 1
    12    6    8 ar
    13    8    9 1
    14    9   10 2
    15    9   11 am
    16   11   12 1
    17   11   33 1
    18   12   13 1
    19   12   34 1
    20   12   35 1
    21   13   14 1
    22   13   36 1
    23   13   37 1
    24   14   15 1
    25   14   38 1
    26   14   39 1
    27   15   24 1
    28   15   16 1
    29   16   21 ar
    30   16   17 ar
    31   17   18 ar
    32   17   40 1
    33   18   19 ar
    34   18   41 1
    35   19   20 ar
    36   19   42 1
    37   20   21 ar
    38   20   43 1
    39   21   22 1
    40   22   23 1
    41   23   28 ar
    42   23   24 ar
    43   24   25 ar
    44   25   26 ar
    45   25   44 1
    46   26   27 ar
    47   26   45 1
    48   27   28 ar
    49   27   46 1
    50   28   47 1
    51   29   48 1
    52   29   49 1
    53   29   50 1
@<TRIPOS>MOLECULE
ZINC08927670
   53    57     0     0     0
SMALL
USER_CHARGES
N-(4-benzothiazol-2-ylthiazol-2-yl)-1-(4-methoxyphenyl)sulfonyl-pyrrolidine-2-carboxamide
@<TRIPOS>ATOM
      1 C1          6.0388   -2.2950    0.1896 C.3       1 <0>         0.0233
      2 O1          6.5547   -1.0576   -0.3051 O.3       1 <0>        -0.3120
      3 C2          5.8811    0.0723    0.0363 C.ar      1 <0>         0.1861
      4 C3          6.3266    1.3082   -0.4095 C.ar      1 <0>        -0.1795
      5 C4          5.6399    2.4553   -0.0614 C.ar      1 <0>         0.0186
      6 C5          4.5095    2.3723    0.7305 C.ar      1 <0>        -0.7030
      7 C6          4.0668    1.1422    1.1807 C.ar      1 <0>         0.0810
      8 C7          4.7467   -0.0083    0.8307 C.ar      1 <0>        -0.2323
      9 S1          3.6359    3.8371    1.1726 S.o2      1 <0>         2.7098
     10 O2          4.5661    4.9076    1.0824 O.2       1 <0>        -0.9506
     11 O3          2.9275    3.5422    2.3686 O.2       1 <0>        -0.9553
     12 N1          2.4963    4.1003    0.0002 N.pl3     1 <0>        -0.9919
     13 C8          2.6929    4.8943   -1.2263 C.3       1 <0>         0.1103
     14 C9          1.2702    5.3504   -1.6357 C.3       1 <0>        -0.1251
     15 C10         0.4244    4.1040   -1.2637 C.3       1 <0>        -0.1242
     16 C11         1.1207    3.5815    0.0106 C.3       1 <0>         0.1451
     17 H1          0.5959    3.9401    0.8961 H         1 <0>         0.1254
     18 C12         1.1411    2.0747    0.0023 C.2       1 <0>         0.4955
     19 O4          2.1995    1.4827   -0.0110 O.2       1 <0>        -0.4850
     20 N2         -0.0168    1.3850    0.0097 N.am      1 <0>        -0.6003
     21 C13         0.0021   -0.0041    0.0020 C.2       1 <0>         0.3246
     22 N3         -1.0085   -0.8508    0.0071 N.2       1 <0>        -0.5038
     23 C14        -0.8060   -2.1673   -0.0026 C.2       1 <0>         0.1509
     24 C15         0.4785   -2.6446   -0.0182 C.2       1 <0>        -0.2142
     25 S2          1.4024   -1.1140   -0.0253 S.3       1 <0>         0.1485
     26 C16        -1.9502   -3.0998    0.0028 C.2       1 <0>         0.2156
     27 N4         -3.2379   -2.8269    0.0172 N.2       1 <0>        -0.4704
     28 C17        -4.1817   -3.7893    0.0201 C.ar      1 <0>         0.0724
     29 C18        -5.5883   -3.6342    0.0344 C.ar      1 <0>        -0.0540
     30 C19        -6.4091   -4.7184    0.0353 C.ar      1 <0>        -0.1126
     31 C20        -5.9075   -6.0123    0.0219 C.ar      1 <0>        -0.0874
     32 C21        -4.5386   -6.2080    0.0072 C.ar      1 <0>        -0.0696
     33 C22        -3.7012   -5.1199    0.0066 C.ar      1 <0>        -0.1379
     34 S3         -1.9402   -4.8870   -0.0163 S.3       1 <0>         0.0138
     35 H2          6.0320   -2.2760    1.2794 H         1 <0>         0.0598
     36 H3          5.0224   -2.4376   -0.1776 H         1 <0>         0.0586
     37 H4          6.6683   -3.1151   -0.1556 H         1 <0>         0.1043
     38 H5          7.2097    1.3736   -1.0277 H         1 <0>         0.1374
     39 H6          5.9865    3.4177   -0.4079 H         1 <0>         0.1415
     40 H7          3.1863    1.0804    1.8030 H         1 <0>         0.1325
     41 H8          4.3979   -0.9693    1.1789 H         1 <0>         0.1323
     42 H9          3.3242    5.7589   -1.0213 H         1 <0>         0.0951
     43 H10         3.1341    4.2786   -2.0101 H         1 <0>         0.0743
     44 H11         0.9579    6.2209   -1.0588 H         1 <0>         0.0863
     45 H12         1.2178    5.5538   -2.7052 H         1 <0>         0.0932
     46 H13         0.4651    3.3591   -2.0584 H         1 <0>         0.0858
     47 H14        -0.6066    4.3870   -1.0513 H         1 <0>         0.1002
     48 H15        -0.8633    1.8585    0.0162 H         1 <0>         0.4319
     49 H16         0.8345   -3.6642   -0.0277 H         1 <0>         0.2055
     50 H17        -6.0152   -2.6422    0.0451 H         1 <0>         0.1348
     51 H18        -7.4786   -4.5687    0.0464 H         1 <0>         0.1368
     52 H19        -6.5794   -6.8578    0.0225 H         1 <0>         0.1417
     53 H20        -4.1317   -7.2083   -0.0030 H         1 <0>         0.1365
@<TRIPOS>BOND
     1    1    2 1
     2    1   35 1
     3    1   36 1
     4    1   37 1
     5    2    3 1
     6    3    8 ar
     7    3    4 ar
     8    4    5 ar
     9    4   38 1
    10    5    6 ar
    11    5   39 1
    12    6    7 ar
    13    6    9 1
    14    7    8 ar
    15    7   40 1
    16    8   41 1
    17    9   10 2
    18    9   11 2
    19    9   12 1
    20   12   16 1
    21   12   13 1
    22   13   14 1
    23   13   42 1
    24   13   43 1
    25   14   15 1
    26   14   44 1
    27   14   45 1
    28   15   16 1
    29   15   46 1
    30   15   47 1
    31   16   17 1
    32   16   18 1
    33   18   19 2
    34   18   20 am
    35   20   21 1
    36   20   48 1
    37   21   25 1
    38   21   22 2
    39   22   23 1
    40   23   24 2
    41   23   26 1
    42   24   25 1
    43   24   49 1
    44   26   34 1
    45   26   27 2
    46   27   28 1
    47   28   33 ar
    48   28   29 ar
    49   29   30 ar
    50   29   50 1
    51   30   31 ar
    52   30   51 1
    53   31   32 ar
    54   31   52 1
    55   32   33 ar
    56   32   53 1
    57   33   34 1
@<TRIPOS>MOLECULE
ZINC14016763
   56    60     0     0     0
SMALL
USER_CHARGES
(3R)-1-(4-chlorophenyl)sulfonyl-N-[4-(2,3-dihydro-1,4-benzodioxin-6-yl)thiazol-2-yl]piperidine-3-carboxamide
@<TRIPOS>ATOM
      1 C1         11.7622   -7.4698   -0.8139 C.ar      1 <0>        -0.0057
      2 C2         13.0604   -7.4409   -0.3406 C.ar      1 <0>        -0.1304
      3 C3         13.5185   -8.4531    0.4839 C.ar      1 <0>         0.0185
      4 C4         12.6749   -9.4906    0.8387 C.ar      1 <0>        -0.1314
      5 C5         11.3751   -9.5154    0.3694 C.ar      1 <0>        -0.0069
      6 C6         10.9181   -8.5040   -0.4548 C.ar      1 <0>        -0.6791
      7 S1          9.2613   -8.5369   -1.0536 S.o2      1 <0>         2.6917
      8 O1          8.8443   -9.8949   -1.0202 O.2       1 <0>        -0.9467
      9 O2          9.2450   -7.7642   -2.2460 O.2       1 <0>        -0.9470
     10 N1          8.3264   -7.7274    0.0477 N.pl3     1 <0>        -0.9971
     11 C7          7.7008   -8.4430    1.1681 C.3       1 <0>         0.1107
     12 C8          6.1980   -8.1455    1.1655 C.3       1 <0>        -0.1297
     13 C9          5.9819   -6.6306    1.1881 C.3       1 <0>        -0.1149
     14 C10         6.5999   -6.0067   -0.0653 C.3       1 <0>        -0.1121
     15 H1          6.1440   -6.4451   -0.9531 H         1 <0>         0.1183
     16 C11         8.1072   -6.2799   -0.0766 C.3       1 <0>         0.1349
     17 C12         6.3584   -4.5192   -0.0581 C.2       1 <0>         0.5255
     18 O3          7.2979   -3.7523   -0.0617 O.2       1 <0>        -0.4918
     19 N2          5.0983   -4.0412   -0.0477 N.am      1 <0>        -0.6073
     20 C13         4.8756   -2.6696   -0.0411 C.2       1 <0>         0.3145
     21 N3          3.7328   -2.0090   -0.0308 N.2       1 <0>        -0.5298
     22 C14         3.7040   -0.6848   -0.0261 C.2       1 <0>         0.1228
     23 C15         4.8801    0.0118   -0.0372 C.2       1 <0>        -0.2371
     24 S2          6.0605   -1.3313   -0.0449 S.3       1 <0>         0.1225
     25 C16         2.4073    0.0357   -0.0150 C.ar      1 <0>        -0.0214
     26 C17         2.3826    1.4292   -0.0102 C.ar      1 <0>        -0.0970
     27 C18         1.1756    2.0973    0.0021 C.ar      1 <0>        -0.1127
     28 C19        -0.0168    1.3866    0.0097 C.ar      1 <0>         0.0565
     29 C20         0.0021   -0.0041    0.0020 C.ar      1 <0>         0.0475
     30 C21         1.2115   -0.6790   -0.0090 C.ar      1 <0>        -0.0793
     31 O4         -1.1580   -0.7164    0.0016 O.3       1 <0>        -0.3061
     32 C22        -2.3436   -0.0155    0.3925 C.3       1 <0>         0.0200
     33 C23        -2.3686    1.3322   -0.3411 C.3       1 <0>         0.0197
     34 O5         -1.1966    2.0661    0.0303 O.3       1 <0>        -0.3063
     35 Cl1        15.1514   -8.4215    1.0725 Cl        1 <0>        -0.0508
     36 H2         11.4058   -6.6820   -1.4611 H         1 <0>         0.1510
     37 H3         13.7185   -6.6307   -0.6179 H         1 <0>         0.1464
     38 H4         13.0318  -10.2809    1.4825 H         1 <0>         0.1459
     39 H5         10.7165  -10.3253    0.6463 H         1 <0>         0.1502
     40 H6          7.8613   -9.5149    1.0524 H         1 <0>         0.0997
     41 H7          8.1403   -8.1070    2.1073 H         1 <0>         0.0763
     42 H8          5.7458   -8.5642    0.2665 H         1 <0>         0.0765
     43 H9          5.7373   -8.5919    2.0468 H         1 <0>         0.0883
     44 H10         6.4556   -6.2094    2.0748 H         1 <0>         0.0787
     45 H11         4.9133   -6.4166    1.2111 H         1 <0>         0.0767
     46 H12         8.5359   -5.9246   -1.0137 H         1 <0>         0.1062
     47 H13         8.5781   -5.7658    0.7612 H         1 <0>         0.0877
     48 H14         4.3469   -4.6546   -0.0448 H         1 <0>         0.4282
     49 H15         5.0495    1.0784   -0.0393 H         1 <0>         0.2008
     50 H16         3.3080    1.9859   -0.0160 H         1 <0>         0.1364
     51 H17         1.1583    3.1772    0.0058 H         1 <0>         0.1398
     52 H18         1.2275   -1.7589   -0.0133 H         1 <0>         0.1442
     53 H19        -3.2227   -0.5992    0.1193 H         1 <0>         0.1236
     54 H20        -2.3333    0.1523    1.4695 H         1 <0>         0.0784
     55 H21        -2.3722    1.1644   -1.4181 H         1 <0>         0.0790
     56 H22        -3.2591    1.8909   -0.0533 H         1 <0>         0.1238
@<TRIPOS>BOND
     1    1    6 ar
     2    1    2 ar
     3    1   36 1
     4    2    3 ar
     5    2   37 1
     6    3    4 ar
     7    3   35 1
     8    4    5 ar
     9    4   38 1
    10    5    6 ar
    11    5   39 1
    12    6    7 1
    13    7    8 2
    14    7    9 2
    15    7   10 1
    16   10   16 1
    17   10   11 1
    18   11   12 1
    19   11   40 1
    20   11   41 1
    21   12   13 1
    22   12   42 1
    23   12   43 1
    24   13   14 1
    25   13   44 1
    26   13   45 1
    27   14   15 1
    28   14   16 1
    29   14   17 1
    30   16   46 1
    31   16   47 1
    32   17   18 2
    33   17   19 am
    34   19   20 1
    35   19   48 1
    36   20   24 1
    37   20   21 2
    38   21   22 1
    39   22   23 2
    40   22   25 1
    41   23   24 1
    42   23   49 1
    43   25   30 ar
    44   25   26 ar
    45   26   27 ar
    46   26   50 1
    47   27   28 ar
    48   27   51 1
    49   28   34 1
    50   28   29 ar
    51   29   30 ar
    52   29   31 1
    53   30   52 1
    54   31   32 1
    55   32   33 1
    56   32   53 1
    57   32   54 1
    58   33   34 1
    59   33   55 1
    60   33   56 1
@<TRIPOS>MOLECULE
ZINC20571992
   62    66     0     0     0
SMALL
USER_CHARGES
N-[4-[4-(4-methoxy-1,3-benzothiazol-2-yl)piperazine-1-carbonyl]phenyl]-4-methyl-benzenesulfonamide
@<TRIPOS>ATOM
      1 C1         -1.0804   -4.8949   -9.9935 C.3       1 <0>        -0.1300
      2 C2         -0.3528   -5.9306   -9.1757 C.ar      1 <0>        -0.0225
      3 C3          0.1705   -5.5941   -7.9413 C.ar      1 <0>        -0.1410
      4 C4          0.8379   -6.5442   -7.1911 C.ar      1 <0>        -0.0112
      5 C5          0.9812   -7.8311   -7.6750 C.ar      1 <0>        -0.6850
      6 C6          0.4621   -8.1664   -8.9115 C.ar      1 <0>        -0.0133
      7 C7         -0.2090   -7.2175   -9.6598 C.ar      1 <0>        -0.1431
      8 S1          1.8319   -9.0422   -6.7188 S.o2      1 <0>         2.6924
      9 O1          2.6077   -8.3331   -5.7625 O.2       1 <0>        -0.9487
     10 O2          2.4090   -9.9561   -7.6413 O.2       1 <0>        -0.9485
     11 N1          0.6886   -9.8863   -5.8687 N.pl3     1 <0>        -1.0711
     12 C8         -0.1251   -9.2270   -4.9540 C.ar      1 <0>         0.1783
     13 C9         -1.4977   -9.4594   -4.9516 C.ar      1 <0>        -0.1352
     14 C10        -2.3057   -8.8084   -4.0477 C.ar      1 <0>        -0.0415
     15 C11        -1.7468   -7.9127   -3.1314 C.ar      1 <0>        -0.1457
     16 C12        -0.3688   -7.6772   -3.1401 C.ar      1 <0>        -0.0727
     17 C13         0.4345   -8.3356   -4.0428 C.ar      1 <0>        -0.1634
     18 C14        -2.6101   -7.2128   -2.1613 C.2       1 <0>         0.5662
     19 O3         -3.7445   -6.9025   -2.4702 O.2       1 <0>        -0.5285
     20 N2         -2.1415   -6.9173   -0.9327 N.am      1 <0>        -0.6137
     21 C15        -0.8115   -7.3741   -0.5020 C.3       1 <0>         0.0950
     22 C16        -0.9531   -8.0762    0.8527 C.3       1 <0>         0.0293
     23 N3         -1.6377   -7.1812    1.7952 N.pl3     1 <0>        -0.4202
     24 C17        -3.0039   -6.8800    1.3473 C.3       1 <0>         0.0439
     25 C18        -2.9464   -6.1289    0.0128 C.3       1 <0>         0.1148
     26 C19        -1.6408   -7.7133    3.0697 C.2       1 <0>         0.3278
     27 N4         -2.1522   -7.2122    4.1702 N.2       1 <0>        -0.5022
     28 C20        -2.0795   -7.8502    5.3603 C.ar      1 <0>         0.0696
     29 C21        -2.5852   -7.4235    6.6142 C.ar      1 <0>         0.1839
     30 C22        -2.4225   -8.2008    7.7367 C.ar      1 <0>        -0.2091
     31 C23        -1.7641   -9.4206    7.6827 C.ar      1 <0>        -0.0551
     32 C24        -1.2592   -9.8653    6.4748 C.ar      1 <0>        -0.1037
     33 C25        -1.4159   -9.0960    5.3474 C.ar      1 <0>        -0.1055
     34 S2         -0.9486   -9.2588    3.6409 S.3       1 <0>        -0.0349
     35 O4         -3.2369   -6.2340    6.7077 O.3       1 <0>        -0.2985
     36 C26        -3.7227   -5.8602    7.9985 C.3       1 <0>         0.0181
     37 H1         -1.0929   -3.9397   -9.4482 H         1 <0>         0.0726
     38 H2         -2.1132   -5.2284  -10.1726 H         1 <0>         0.0798
     39 H3         -0.5662   -4.7607  -10.9566 H         1 <0>         0.0799
     40 H4          0.0582   -4.5887   -7.5631 H         1 <0>         0.1341
     41 H5          1.2470   -6.2811   -6.2269 H         1 <0>         0.1411
     42 H6          0.5780   -9.1707   -9.2915 H         1 <0>         0.1392
     43 H7         -0.6181   -7.4805  -10.6241 H         1 <0>         0.1341
     44 H8          0.5729  -10.9686   -6.0276 H         1 <0>         0.4580
     45 H9         -1.9289  -10.1515   -5.6598 H         1 <0>         0.1373
     46 H10        -3.3703   -8.9896   -4.0459 H         1 <0>         0.1382
     47 H11         0.0653   -6.9826   -2.4362 H         1 <0>         0.1441
     48 H12         1.4998   -8.1577   -4.0468 H         1 <0>         0.1633
     49 H13        -0.4053   -8.0742   -1.2469 H         1 <0>         0.1187
     50 H14        -0.1393   -6.5085   -0.4076 H         1 <0>         0.0919
     51 H15        -1.5402   -8.9981    0.7283 H         1 <0>         0.0686
     52 H16         0.0448   -8.3267    1.2420 H         1 <0>         0.1075
     53 H17        -3.5625   -7.8187    1.2174 H         1 <0>         0.0608
     54 H18        -3.5071   -6.2551    2.0998 H         1 <0>         0.1128
     55 H19        -2.4810   -5.1427    0.1570 H         1 <0>         0.0869
     56 H20        -3.9621   -5.9997   -0.3892 H         1 <0>         0.1112
     57 H21        -2.8162   -7.8543    8.6808 H         1 <0>         0.1407
     58 H22        -1.6465  -10.0168    8.5755 H         1 <0>         0.1428
     59 H23        -0.7479  -10.8148    6.4171 H         1 <0>         0.1362
     60 H24        -4.2256   -4.8841    7.9324 H         1 <0>         0.1058
     61 H25        -2.8797   -5.7915    8.7018 H         1 <0>         0.0598
     62 H26        -4.4367   -6.6173    8.3549 H         1 <0>         0.0596
@<TRIPOS>BOND
     1    1    2 1
     2    1   37 1
     3    1   38 1
     4    1   39 1
     5    2    7 ar
     6    2    3 ar
     7    3    4 ar
     8    3   40 1
     9    4    5 ar
    10    4   41 1
    11    5    6 ar
    12    5    8 1
    13    6    7 ar
    14    6   42 1
    15    7   43 1
    16    8    9 2
    17    8   10 2
    18    8   11 1
    19   11   12 1
    20   11   44 1
    21   12   17 ar
    22   12   13 ar
    23   13   14 ar
    24   13   45 1
    25   14   15 ar
    26   14   46 1
    27   15   16 ar
    28   15   18 1
    29   16   17 ar
    30   16   47 1
    31   17   48 1
    32   18   19 2
    33   18   20 am
    34   20   25 1
    35   20   21 1
    36   21   22 1
    37   21   49 1
    38   21   50 1
    39   22   23 1
    40   22   51 1
    41   22   52 1
    42   23   24 1
    43   23   26 1
    44   24   25 1
    45   24   53 1
    46   24   54 1
    47   25   55 1
    48   25   56 1
    49   26   34 1
    50   26   27 2
    51   27   28 1
    52   28   33 ar
    53   28   29 ar
    54   29   30 ar
    55   29   35 1
    56   30   31 ar
    57   30   57 1
    58   31   32 ar
    59   31   58 1
    60   32   33 ar
    61   32   59 1
    62   33   34 1
    63   35   36 1
    64   36   60 1
    65   36   61 1
    66   36   62 1
@<TRIPOS>MOLECULE
ZINC35867830
   66    70     0     0     0
SMALL
USER_CHARGES

@<TRIPOS>ATOM
      1 C1          4.0394   -1.0044    4.2649 C.3       1 <0>        -0.1507
      2 C2          2.8182   -1.3524    3.4113 C.3       1 <0>        -0.1142
      3 C3          3.0112   -2.7348    2.7847 C.3       1 <0>        -0.0493
      4 C4          1.8084   -3.0775    1.9440 C.ar      1 <0>         0.3530
      5 N1          0.7883   -3.7053    2.5014 N.ar      1 <0>        -0.5331
      6 C5         -0.2957   -4.0345    1.8176 C.ar      1 <0>         0.4815
      7 C6         -0.3695   -3.7036    0.4359 C.ar      1 <0>        -0.1894
      8 C7         -1.4537   -3.9644   -0.5125 C.2       1 <0>        -0.0786
      9 C8         -1.2721   -3.5424   -1.7802 C.2       1 <0>        -0.1375
     10 S1          0.3296   -2.7824   -1.7900 S.3       1 <0>         0.1048
     11 C9          0.7553   -3.0347   -0.0867 C.ar      1 <0>         0.1246
     12 N2          1.7950   -2.7395    0.6692 N.ar      1 <0>        -0.4811
     13 C10        -2.2219   -3.6876   -2.9301 C.3       1 <0>        -0.0417
     14 C11        -3.2899   -4.7226   -2.5488 C.3       1 <0>        -0.1148
     15 C12        -3.8176   -4.3903   -1.1500 C.3       1 <0>        -0.1245
     16 C13        -2.7389   -4.6803   -0.1057 C.3       1 <0>        -0.0624
     17 N3         -1.3428   -4.6919    2.4378 N.pl3     1 <0>        -0.6560
     18 C14        -1.4407   -6.1574    2.3872 C.3       1 <0>         0.1356
     19 C15        -1.5264   -6.6926    3.8220 C.3       1 <0>         0.1019
     20 N4         -2.5606   -5.9381    4.5437 N.pl3     1 <0>        -0.9927
     21 C16        -2.4627   -4.4726    4.5943 C.3       1 <0>         0.1023
     22 C17        -2.3740   -3.9377    3.1643 C.3       1 <0>         0.1359
     23 S2         -3.8143   -6.7252    5.2862 S.o2      1 <0>         2.6915
     24 O1         -4.8791   -5.7895    5.3859 O.2       1 <0>        -0.9532
     25 O2         -3.9576   -7.9749    4.6253 O.2       1 <0>        -0.9526
     26 C18        -3.3021   -7.0827    6.9338 C.ar      1 <0>        -0.6951
     27 C19        -2.6531   -8.2716    7.2119 C.ar      1 <0>         0.0017
     28 C20        -2.2504   -8.5549    8.5023 C.ar      1 <0>        -0.1425
     29 C21        -2.4975   -7.6439    9.5209 C.ar      1 <0>         0.2041
     30 C22        -3.1491   -6.4505    9.2383 C.ar      1 <0>        -0.1666
     31 C23        -3.5450   -6.1712    7.9449 C.ar      1 <0>         0.0017
     32 N5         -2.0912   -7.9280   10.8294 N.am      1 <0>        -0.6798
     33 C24        -0.9509   -8.6126   11.0473 C.2       1 <0>         0.5118
     34 O3         -0.2275   -8.8978   10.1165 O.2       1 <0>        -0.5177
     35 C25        -0.5746   -9.0236   12.4475 C.3       1 <0>        -0.1722
     36 H1          4.9310   -0.9979    3.6379 H         1 <0>         0.0577
     37 H2          3.9019   -0.0196    4.7113 H         1 <0>         0.0581
     38 H3          4.1553   -1.7479    5.0535 H         1 <0>         0.0570
     39 H4          1.9266   -1.3590    4.0383 H         1 <0>         0.0650
     40 H5          2.7024   -0.6089    2.6227 H         1 <0>         0.0656
     41 H6          3.9028   -2.7282    2.1577 H         1 <0>         0.0934
     42 H7          3.1271   -3.4782    3.5733 H         1 <0>         0.0939
     43 H8         -2.6972   -2.7288   -3.1369 H         1 <0>         0.0886
     44 H9         -1.6802   -4.0273   -3.8129 H         1 <0>         0.0863
     45 H10        -4.1089   -4.6846   -3.2671 H         1 <0>         0.0769
     46 H11        -2.8487   -5.7193   -2.5460 H         1 <0>         0.0696
     47 H12        -4.0897   -3.3357   -1.1066 H         1 <0>         0.0665
     48 H13        -4.6972   -4.9990   -0.9406 H         1 <0>         0.0727
     49 H14        -2.5585   -5.7540   -0.0551 H         1 <0>         0.0782
     50 H15        -3.0668   -4.3169    0.8682 H         1 <0>         0.0859
     51 H16        -2.3354   -6.4454    1.8353 H         1 <0>         0.0726
     52 H17        -0.5576   -6.5663    1.8964 H         1 <0>         0.0820
     53 H18        -1.7911   -7.7498    3.8028 H         1 <0>         0.1023
     54 H19        -0.5650   -6.5626    4.3189 H         1 <0>         0.0779
     55 H20        -3.3458   -4.0637    5.0851 H         1 <0>         0.1018
     56 H21        -1.5680   -4.1846    5.1462 H         1 <0>         0.0782
     57 H22        -2.1071   -2.8812    3.1864 H         1 <0>         0.0825
     58 H23        -3.3367   -4.0641    2.6690 H         1 <0>         0.0716
     59 H24        -2.4612   -8.9797    6.4193 H         1 <0>         0.1430
     60 H25        -1.7442   -9.4839    8.7190 H         1 <0>         0.1425
     61 H26        -3.3430   -5.7402   10.0283 H         1 <0>         0.1373
     62 H27        -4.0481   -5.2415    7.7237 H         1 <0>         0.1440
     63 H28        -2.6303   -7.6323   11.5796 H         1 <0>         0.4167
     64 H29        -0.9916  -10.0077   12.6617 H         1 <0>         0.1018
     65 H30         0.5111   -9.0621   12.5355 H         1 <0>         0.1006
     66 H31        -0.9713   -8.2984   13.1580 H         1 <0>         0.0849
@<TRIPOS>BOND
     1    1    2 1
     2    1   36 1
     3    1   37 1
     4    1   38 1
     5    2    3 1
     6    2   39 1
     7    2   40 1
     8    3    4 1
     9    3   41 1
    10    3   42 1
    11    4   12 ar
    12    4    5 ar
    13    5    6 ar
    14    6    7 ar
    15    6   17 1
    16    7   11 ar
    17    7    8 1
    18    8   16 1
    19    8    9 2
    20    9   10 1
    21    9   13 1
    22   10   11 1
    23   11   12 ar
    24   13   14 1
    25   13   43 1
    26   13   44 1
    27   14   15 1
    28   14   45 1
    29   14   46 1
    30   15   16 1
    31   15   47 1
    32   15   48 1
    33   16   49 1
    34   16   50 1
    35   17   22 1
    36   17   18 1
    37   18   19 1
    38   18   51 1
    39   18   52 1
    40   19   20 1
    41   19   53 1
    42   19   54 1
    43   20   21 1
    44   20   23 1
    45   21   22 1
    46   21   55 1
    47   21   56 1
    48   22   57 1
    49   22   58 1
    50   23   24 2
    51   23   25 2
    52   23   26 1
    53   26   31 ar
    54   26   27 ar
    55   27   28 ar
    56   27   59 1
    57   28   29 ar
    58   28   60 1
    59   29   30 ar
    60   29   32 1
    61   30   31 ar
    62   30   61 1
    63   31   62 1
    64   32   33 am
    65   32   63 1
    66   33   34 2
    67   33   35 1
    68   35   64 1
    69   35   65 1
    70   35   66 1
@<TRIPOS>MOLECULE
ZINC40045732
   58    62     0     0     0
SMALL
USER_CHARGES

@<TRIPOS>ATOM
      1 C1         -0.0184    1.5028    0.0103 C.3       1 <0>        -0.1167
      2 C2          0.0021   -0.0041    0.0020 C.ar      1 <0>        -0.0976
      3 C3          0.0058   -0.6891   -1.2051 C.ar      1 <0>        -0.0584
      4 C4          0.0216   -2.0654   -1.2351 C.ar      1 <0>        -0.0886
      5 C5          0.0352   -2.7901   -0.0433 C.ar      1 <0>         0.1296
      6 C6          0.0374   -2.0861    1.1720 C.ar      1 <0>        -0.1990
      7 C7          0.0226   -0.6916    1.1835 C.ar      1 <0>        -0.0401
      8 C8          0.0678   -2.8486    2.4457 C.2       1 <0>         0.4613
      9 O1         -0.0968   -2.3318    3.5367 O.2       1 <0>        -0.4270
     10 C9          0.3146   -4.2829    2.2654 C.2       1 <0>        -0.2415
     11 C10         0.2950   -4.8502    1.0225 C.2       1 <0>         0.1025
     12 O2          0.0437   -4.1416   -0.0960 O.3       1 <0>        -0.1726
     13 C11         0.5838   -6.2870    1.1658 C.2       1 <0>         0.5725
     14 O3          0.6445   -7.0795    0.2469 O.2       1 <0>        -0.4164
     15 N1          0.7715   -6.5952    2.4652 N.am      1 <0>        -0.5017
     16 C12         0.6149   -5.3618    3.2534 C.3       1 <0>         0.2326
     17 H1         -0.2106   -5.4676    3.9573 H         1 <0>         0.1385
     18 C13         1.8916   -5.0505    3.9911 C.ar      1 <0>        -0.1041
     19 C14         3.1133   -5.3074    3.3964 C.ar      1 <0>        -0.1086
     20 C15         4.2863   -5.0230    4.0705 C.ar      1 <0>        -0.0967
     21 C16         4.2406   -4.4816    5.3408 C.ar      1 <0>        -0.1261
     22 C17         3.0163   -4.2230    5.9396 C.ar      1 <0>         0.1143
     23 C18         1.8405   -4.5037    5.2585 C.ar      1 <0>        -0.1064
     24 O4          2.9687   -3.6904    7.1890 O.3       1 <0>        -0.4942
     25 C19         1.0600   -7.8495    2.9688 C.2       1 <0>         0.3028
     26 N2          1.2150   -8.9809    2.3046 N.2       1 <0>        -0.5358
     27 C20         1.4893  -10.1028    2.9194 C.2       1 <0>         0.2062
     28 C21         1.6071  -10.0355    4.3019 C.2       1 <0>        -0.3056
     29 S1          1.3044   -8.2965    4.5727 S.3       1 <0>         0.2491
     30 C22         1.9020  -11.0931    5.2664 C.2       1 <0>         0.5664
     31 O5          2.0852  -12.2329    4.8823 O.2       1 <0>        -0.4886
     32 O6          1.9712  -10.8055    6.5829 O.3       1 <0>        -0.3444
     33 C23         2.2635  -11.8879    7.4690 C.3       1 <0>         0.0960
     34 C24         2.2999  -11.3801    8.8874 C.2       1 <0>        -0.1627
     35 C25         1.6986  -12.0505    9.8387 C.2       1 <0>        -0.1638
     36 C26         1.6670  -11.3975    2.1688 C.3       1 <0>        -0.0939
     37 C27         0.0236   -2.7896   -2.5566 C.3       1 <0>        -0.1166
     38 H2          1.0042    1.8801    0.0026 H         1 <0>         0.0771
     39 H3         -0.5455    1.8639   -0.8728 H         1 <0>         0.0732
     40 H4         -0.5286    1.8543    0.9071 H         1 <0>         0.0730
     41 H5         -0.0043   -0.1355   -2.1324 H         1 <0>         0.1449
     42 H6          0.0237   -0.1571    2.1220 H         1 <0>         0.1462
     43 H7          3.1512   -5.7313    2.4038 H         1 <0>         0.1181
     44 H8          5.2392   -5.2246    3.6039 H         1 <0>         0.1335
     45 H9          5.1572   -4.2603    5.8673 H         1 <0>         0.1355
     46 H10         0.8861   -4.2988    5.7206 H         1 <0>         0.1400
     47 H11         2.9572   -2.7236    7.2042 H         1 <0>         0.3951
     48 H12         1.4916  -12.6519    7.3763 H         1 <0>         0.0773
     49 H13         3.2320  -12.3167    7.2116 H         1 <0>         0.0819
     50 H14         2.8218  -10.4635    9.1196 H         1 <0>         0.1221
     51 H15         1.1767  -12.9671    9.6065 H         1 <0>         0.1012
     52 H16         1.7247  -11.6866   10.8552 H         1 <0>         0.1105
     53 H17         2.7148  -11.5165    1.8928 H         1 <0>         0.0894
     54 H18         1.3615  -12.2299    2.8027 H         1 <0>         0.0988
     55 H19         1.0535  -11.3824    1.2680 H         1 <0>         0.0839
     56 H20         1.0517   -2.9523   -2.8802 H         1 <0>         0.0793
     57 H21        -0.4786   -3.7506   -2.4451 H         1 <0>         0.0766
     58 H22        -0.5008   -2.1898   -3.3005 H         1 <0>         0.0775
@<TRIPOS>BOND
     1    1    2 1
     2    1   38 1
     3    1   39 1
     4    1   40 1
     5    2    7 ar
     6    2    3 ar
     7    3    4 ar
     8    3   41 1
     9    4    5 ar
    10    4   37 1
    11    5   12 1
    12    5    6 ar
    13    6    7 ar
    14    6    8 1
    15    7   42 1
    16    8    9 2
    17    8   10 1
    18   10   16 1
    19   10   11 2
    20   11   12 1
    21   11   13 1
    22   13   14 2
    23   13   15 am
    24   15   16 1
    25   15   25 1
    26   16   17 1
    27   16   18 1
    28   18   23 ar
    29   18   19 ar
    30   19   20 ar
    31   19   43 1
    32   20   21 ar
    33   20   44 1
    34   21   22 ar
    35   21   45 1
    36   22   23 ar
    37   22   24 1
    38   23   46 1
    39   24   47 1
    40   25   29 1
    41   25   26 2
    42   26   27 1
    43   27   28 2
    44   27   36 1
    45   28   29 1
    46   28   30 1
    47   30   31 2
    48   30   32 1
    49   32   33 1
    50   33   34 1
    51   33   48 1
    52   33   49 1
    53   34   35 2
    54   34   50 1
    55   35   51 1
    56   35   52 1
    57   36   53 1
    58   36   54 1
    59   36   55 1
    60   37   56 1
    61   37   57 1
    62   37   58 1
@<TRIPOS>MOLECULE
ZINC09298111
   57    61     0     0     0
SMALL
USER_CHARGES
methyl [6-methyl-2-(oxoBLAHyl)carbonylamino-4,5,6,7-tetrahydrobenzothiophen-3-yl]carbonylaminoformate
@<TRIPOS>ATOM
      1 C1         -0.0187    1.5258    0.0104 C.3       1 <0>        -0.1483
      2 C2          0.0021   -0.0041    0.0020 C.3       1 <0>        -0.0860
      3 H1          0.5076   -0.3577   -0.8966 H         1 <0>         0.0770
      4 C3          0.7423   -0.5142    1.2418 C.3       1 <0>        -0.1142
      5 C4          0.9841   -2.0198    1.1204 C.3       1 <0>        -0.0634
      6 C5         -0.3404   -2.7058    0.8092 C.2       1 <0>        -0.0636
      7 C6         -1.3897   -2.0059    0.3266 C.2       1 <0>        -0.2039
      8 S1         -2.6784   -3.2029    0.1244 S.3       1 <0>         0.2564
      9 C7         -1.8374   -4.6151    0.6723 C.2       1 <0>         0.0818
     10 C8         -0.5788   -4.1268    0.9991 C.2       1 <0>        -0.2341
     11 C9          0.4689   -5.0108    1.5152 C.2       1 <0>         0.5901
     12 O1          0.5765   -5.1916    2.7137 O.2       1 <0>        -0.4480
     13 N1          1.3136   -5.6241    0.6627 N.am      1 <0>        -0.6576
     14 C10         2.2776   -6.4375    1.1376 C.2       1 <0>         0.6378
     15 O2          2.3851   -6.6179    2.3340 O.2       1 <0>        -0.5053
     16 O3          3.1212   -7.0499    0.2861 O.3       1 <0>        -0.3645
     17 C11         4.1347   -7.9116    0.8680 C.3       1 <0>         0.0529
     18 N2         -2.3064   -5.9150    0.7629 N.am      1 <0>        -0.6211
     19 C12        -3.5713   -6.2021    0.3968 C.2       1 <0>         0.5703
     20 O4         -4.3011   -5.3194   -0.0131 O.2       1 <0>        -0.4594
     21 C13        -4.0693   -7.5826    0.4930 C.2       1 <0>        -0.2726
     22 C14        -3.2486   -8.6027    0.9593 C.2       1 <0>         0.0619
     23 C15        -3.7687   -9.9086    1.0345 C.ar      1 <0>        -0.1802
     24 C16        -2.9392  -11.0144    1.5205 C.ar      1 <0>         0.0106
     25 C17        -1.6162  -10.8145    1.9219 C.ar      1 <0>        -0.1270
     26 C18        -0.8786  -11.8729    2.3684 C.ar      1 <0>        -0.0792
     27 C19        -1.4279  -13.1496    2.4294 C.ar      1 <0>        -0.1220
     28 C20        -2.7143  -13.3785    2.0412 C.ar      1 <0>        -0.0792
     29 C21        -3.5006  -12.3115    1.5787 C.ar      1 <0>        -0.0853
     30 C22        -4.8360  -12.5081    1.1742 C.ar      1 <0>        -0.0108
     31 C23        -5.5924  -11.4753    0.7269 C.ar      1 <0>        -0.1497
     32 C24        -5.0898  -10.1712    0.6457 C.ar      1 <0>         0.2084
     33 O5         -5.8838   -9.1775    0.1939 O.3       1 <0>        -0.2527
     34 C25        -5.4441   -7.9115    0.1050 C.2       1 <0>         0.5228
     35 O6         -6.1865   -7.0373   -0.3024 O.2       1 <0>        -0.4129
     36 C26        -1.4372   -0.5385    0.0306 C.3       1 <0>        -0.0321
     37 H2          1.0039    1.9031    0.0027 H         1 <0>         0.0586
     38 H3         -0.5459    1.8868   -0.8726 H         1 <0>         0.0583
     39 H4         -0.5289    1.8773    0.9072 H         1 <0>         0.0575
     40 H5          1.6992    0.0003    1.3295 H         1 <0>         0.0719
     41 H6          0.1423   -0.3143    2.1296 H         1 <0>         0.0687
     42 H7          1.6933   -2.2122    0.3154 H         1 <0>         0.0780
     43 H8          1.3845   -2.4024    2.0593 H         1 <0>         0.0755
     44 H9          1.2277   -5.4800   -0.2927 H         1 <0>         0.4227
     45 H10         4.7457   -8.3413    0.0741 H         1 <0>         0.1098
     46 H11         4.7667   -7.3283    1.5376 H         1 <0>         0.0685
     47 H12         3.6525   -8.7121    1.4290 H         1 <0>         0.0673
     48 H13        -1.7244   -6.6189    1.0898 H         1 <0>         0.4135
     49 H14        -2.2311   -8.3975    1.2578 H         1 <0>         0.1481
     50 H15        -1.1793   -9.8277    1.8796 H         1 <0>         0.1279
     51 H16         0.1441  -11.7171    2.6785 H         1 <0>         0.1328
     52 H17        -0.8254  -13.9718    2.7865 H         1 <0>         0.1327
     53 H18        -3.1282  -14.3746    2.0942 H         1 <0>         0.1378
     54 H19        -5.2643  -13.4984    1.2208 H         1 <0>         0.1517
     55 H20        -6.6120  -11.6642    0.4250 H         1 <0>         0.1528
     56 H21        -2.0042   -0.0254    0.8073 H         1 <0>         0.0855
     57 H22        -1.9091   -0.3745   -0.9382 H         1 <0>         0.0835
@<TRIPOS>BOND
     1    1    2 1
     2    1   37 1
     3    1   38 1
     4    1   39 1
     5    2    3 1
     6    2   36 1
     7    2    4 1
     8    4    5 1
     9    4   40 1
    10    4   41 1
    11    5    6 1
    12    5   42 1
    13    5   43 1
    14    6   10 1
    15    6    7 2
    16    7    8 1
    17    7   36 1
    18    8    9 1
    19    9   10 2
    20    9   18 1
    21   10   11 1
    22   11   12 2
    23   11   13 am
    24   13   14 am
    25   13   44 1
    26   14   15 2
    27   14   16 1
    28   16   17 1
    29   17   45 1
    30   17   46 1
    31   17   47 1
    32   18   19 am
    33   18   48 1
    34   19   20 2
    35   19   21 1
    36   21   34 1
    37   21   22 2
    38   22   23 1
    39   22   49 1
    40   23   32 ar
    41   23   24 ar
    42   24   29 ar
    43   24   25 ar
    44   25   26 ar
    45   25   50 1
    46   26   27 ar
    47   26   51 1
    48   27   28 ar
    49   27   52 1
    50   28   29 ar
    51   28   53 1
    52   29   30 ar
    53   30   31 ar
    54   30   54 1
    55   31   32 ar
    56   31   55 1
    57   32   33 1
    58   33   34 1
    59   34   35 2
    60   36   56 1
    61   36   57 1
@<TRIPOS>MOLECULE
ZINC14275604
   43    45     0     0     0
SMALL
USER_CHARGES
N-[(5-iodo-2-pyridyl)carbamothioyl]-3-nitro-4-pyrrolidin-1-yl-benzamide
@<TRIPOS>ATOM
      1 C1          1.2911    1.6499    0.1529 C.ar      1 <0>        -0.0325
      2 C2          0.1536    0.8751    0.1737 C.ar      1 <0>        -0.1588
      3 C3         -1.0984    1.4755    0.0708 C.ar      1 <0>         0.1827
      4 C4         -1.2029    2.8593   -0.0429 C.ar      1 <0>        -0.0279
      5 C5         -0.0781    3.6339   -0.0637 C.ar      1 <0>         0.0116
      6 C6          1.1837    3.0391    0.0337 C.ar      1 <0>        -0.1389
      7 C7          2.3981    3.8748    0.0113 C.2       1 <0>         0.5400
      8 O1          2.3032    5.0823   -0.0924 O.2       1 <0>        -0.3939
      9 N1          3.6135    3.3000    0.1058 N.am      1 <0>        -0.6385
     10 C8          4.7237    4.0640    0.0853 C.2       1 <0>         0.4635
     11 S1          4.5900    5.7645   -0.0607 S.2       1 <0>        -0.3374
     12 N2          5.9390    3.4892    0.1797 N.pl3     1 <0>        -0.6064
     13 C9          7.0806    4.2836    0.2666 C.ar      1 <0>         0.3532
     14 C10         8.3198    3.6883    0.4761 C.ar      1 <0>        -0.1905
     15 C11         9.4458    4.4880    0.5552 C.ar      1 <0>        -0.0174
     16 C12         9.2919    5.8630    0.4324 C.ar      1 <0>        -0.1757
     17 C13         8.0297    6.3866    0.2312 C.ar      1 <0>         0.1592
     18 N3          6.9746    5.5982    0.1545 N.ar      1 <0>        -0.4132
     19 I1         10.9567    7.1292    0.5503 I         1 <0>        -0.0253
     20 N4         -2.5368    3.4924   -0.1473 N.pl3     1 <0>         0.0235
     21 O2         -2.6358    4.7063   -0.1560 O.2       1 <0>        -0.1809
     22 O3         -3.5355    2.7994   -0.2244 O.3       1 <0>        -0.0904
     23 N5         -2.2468    0.6921    0.0866 N.pl3     1 <0>        -0.4803
     24 C14        -2.1740   -0.3798   -0.9390 C.3       1 <0>         0.0373
     25 C15        -3.2126   -1.4167   -0.4424 C.3       1 <0>        -0.1211
     26 C16        -3.0410   -1.3697    1.0933 C.3       1 <0>        -0.1294
     27 C17        -2.3978   -0.0011    1.3843 C.3       1 <0>         0.0406
     28 H1          2.2636    1.1864    0.2288 H         1 <0>         0.1421
     29 H2          0.2323   -0.1981    0.2653 H         1 <0>         0.1545
     30 H3         -0.1633    4.7065   -0.1559 H         1 <0>         0.1741
     31 H4          3.6893    2.3365    0.1885 H         1 <0>         0.4058
     32 H5          6.0191    2.5225    0.1872 H         1 <0>         0.4091
     33 H6          8.4025    2.6157    0.5716 H         1 <0>         0.1423
     34 H7         10.4218    4.0535    0.7134 H         1 <0>         0.1465
     35 H8          7.9049    7.4551    0.1351 H         1 <0>         0.1664
     36 H9         -2.4540    0.0060   -1.9193 H         1 <0>         0.0919
     37 H10        -1.1764   -0.8179   -0.9675 H         1 <0>         0.0546
     38 H11        -2.9799   -2.4100   -0.8263 H         1 <0>         0.0792
     39 H12        -4.2217   -1.1187   -0.7271 H         1 <0>         0.0848
     40 H13        -2.3851   -2.1743    1.4255 H         1 <0>         0.0718
     41 H14        -4.0111   -1.4439    1.5848 H         1 <0>         0.0818
     42 H15        -1.4206   -0.1409    1.8465 H         1 <0>         0.0519
     43 H16        -3.0404    0.5818    2.0441 H         1 <0>         0.0901
@<TRIPOS>BOND
     1    1    6 ar
     2    1    2 ar
     3    1   28 1
     4    2    3 ar
     5    2   29 1
     6    3    4 ar
     7    3   23 1
     8    4    5 ar
     9    4   20 1
    10    5    6 ar
    11    5   30 1
    12    6    7 1
    13    7    8 2
    14    7    9 am
    15    9   10 1
    16    9   31 1
    17   10   11 2
    18   10   12 1
    19   12   13 1
    20   12   32 1
    21   13   18 ar
    22   13   14 ar
    23   14   15 ar
    24   14   33 1
    25   15   16 ar
    26   15   34 1
    27   16   17 ar
    28   16   19 1
    29   17   18 ar
    30   17   35 1
    31   20   21 2
    32   20   22 1
    33   23   27 1
    34   23   24 1
    35   24   25 1
    36   24   36 1
    37   24   37 1
    38   25   26 1
    39   25   38 1
    40   25   39 1
    41   26   27 1
    42   26   40 1
    43   26   41 1
    44   27   42 1
    45   27   43 1
@<TRIPOS>MOLECULE
ZINC24882661
   61    65     0     0     0
SMALL
USER_CHARGES
(7S)-2-[(1R)-1-(4-amino-6-dimethylamino-1,3,5-triazin-2-yl)ethyl]sulfanyl-7-methyl-3-phenyl-5,6,7,8-tetrahydrobenzothiopheno[3,2-e]pyrimidin-4-one
@<TRIPOS>ATOM
      1 C1          2.5974    7.3213   -2.2157 C.3       1 <0>        -0.1493
      2 C2          2.1287    6.0533   -1.4991 C.3       1 <0>        -0.0873
      3 H1          1.6821    6.3332   -0.5336 H         1 <0>         0.0772
      4 C3          1.0916    5.3290   -2.3623 C.3       1 <0>        -0.1178
      5 C4          0.4396    4.2048   -1.5566 C.3       1 <0>        -0.0611
      6 C5          1.5362    3.3228   -0.9659 C.2       1 <0>        -0.0437
      7 C6          2.8026    3.7738   -0.8626 C.2       1 <0>        -0.1704
      8 S1          3.7098    2.4364   -0.1343 S.3       1 <0>         0.1464
      9 C7          2.3810    1.2710    0.0295 C.2       1 <0>         0.1168
     10 C8          1.2738    1.9636   -0.4887 C.2       1 <0>        -0.2502
     11 C9          0.0335    1.2505   -0.4838 C.2       1 <0>         0.5606
     12 O1         -0.9799    1.7705   -0.9184 O.2       1 <0>        -0.5050
     13 N1          0.0021   -0.0041    0.0020 N.am      1 <0>        -0.4699
     14 C10         1.1299   -0.6041    0.4883 C.2       1 <0>         0.3661
     15 N2          2.2843    0.0313    0.4952 N.2       1 <0>        -0.4923
     16 S2          1.0387   -2.2485    1.1147 S.3       1 <0>         0.1166
     17 C11         2.7656   -2.4977    1.5960 C.3       1 <0>        -0.0302
     18 H2          3.2350   -1.7874    2.2924 H         1 <0>         0.1425
     19 C12         3.6513   -2.4735    0.3487 C.3       1 <0>        -0.1470
     20 C13         2.9074   -3.8294    2.2870 C.ar      1 <0>         0.4398
     21 N3          2.3197   -4.8999    1.7817 N.ar      1 <0>        -0.6328
     22 C14         2.4464   -6.0787    2.3866 C.ar      1 <0>         0.6363
     23 N4          3.1565   -6.1764    3.5054 N.ar      1 <0>        -0.6532
     24 C15         3.7415   -5.0972    4.0130 C.ar      1 <0>         0.6298
     25 N5          3.6144   -3.9226    3.3994 N.ar      1 <0>        -0.6263
     26 N6          4.4804   -5.1936    5.1744 N.pl3     1 <0>        -0.5796
     27 C16         5.1256   -4.0028    5.7331 C.3       1 <0>         0.1014
     28 C17         4.6197   -6.4866    5.8488 C.3       1 <0>         0.1030
     29 N7          1.8368   -7.1969    1.8553 N.pl3     1 <0>        -0.8285
     30 C18        -1.2093   -0.7082    0.0099 C.ar      1 <0>         0.0872
     31 C19        -2.0527   -0.6291    1.1101 C.ar      1 <0>        -0.0874
     32 C20        -3.2487   -1.3198    1.1125 C.ar      1 <0>        -0.1095
     33 C21        -3.6011   -2.0989    0.0258 C.ar      1 <0>        -0.0962
     34 C22        -2.7606   -2.1842   -1.0690 C.ar      1 <0>        -0.1086
     35 C23        -1.5660   -1.4909   -1.0799 C.ar      1 <0>        -0.0852
     36 C24         3.3244    5.1164   -1.2754 C.3       1 <0>        -0.0321
     37 H3          1.7393    7.9909   -2.3749 H         1 <0>         0.0596
     38 H4          3.0376    7.0520   -3.1872 H         1 <0>         0.0574
     39 H5          3.3523    7.8325   -1.6002 H         1 <0>         0.0580
     40 H6          0.3180    6.0426   -2.6821 H         1 <0>         0.0720
     41 H7          1.5852    4.9022   -3.2478 H         1 <0>         0.0665
     42 H8         -0.1667    4.6378   -0.7473 H         1 <0>         0.0787
     43 H9         -0.2046    3.6061   -2.2173 H         1 <0>         0.0866
     44 H10         4.7008   -2.6250    0.6413 H         1 <0>         0.0708
     45 H11         3.5478   -1.5014   -0.1556 H         1 <0>         0.0929
     46 H12         3.3420   -3.2767   -0.3363 H         1 <0>         0.0701
     47 H13         5.6646   -4.2751    6.6525 H         1 <0>         0.0799
     48 H14         4.3612   -3.2470    5.9664 H         1 <0>         0.0651
     49 H15         5.8354   -3.5923    4.9998 H         1 <0>         0.0652
     50 H16         5.2389   -6.3653    6.7499 H         1 <0>         0.0799
     51 H17         5.0995   -7.2053    5.1682 H         1 <0>         0.0632
     52 H18         3.6253   -6.8600    6.1347 H         1 <0>         0.0632
     53 H19         1.9420   -8.1708    2.3558 H         1 <0>         0.4399
     54 H20         1.2457   -7.1144    0.9313 H         1 <0>         0.4423
     55 H21        -1.7758   -0.0246    1.9611 H         1 <0>         0.1274
     56 H22        -3.9074   -1.2549    1.9659 H         1 <0>         0.1344
     57 H23        -4.5348   -2.6417    0.0319 H         1 <0>         0.1324
     58 H24        -3.0386   -2.7932   -1.9164 H         1 <0>         0.1351
     59 H25        -0.9103   -1.5574   -1.9355 H         1 <0>         0.1284
     60 H26         3.8990    5.0260   -2.2090 H         1 <0>         0.0868
     61 H27         3.9702    5.5281   -0.4858 H         1 <0>         0.0842
@<TRIPOS>BOND
     1    1    2 1
     2    1   37 1
     3    1   38 1
     4    1   39 1
     5    2    3 1
     6    2   36 1
     7    2    4 1
     8    4    5 1
     9    4   40 1
    10    4   41 1
    11    5    6 1
    12    5   42 1
    13    5   43 1
    14    6   10 1
    15    6    7 2
    16    7    8 1
    17    7   36 1
    18    8    9 1
    19    9   15 1
    20    9   10 2
    21   10   11 1
    22   11   12 2
    23   11   13 am
    24   13   14 1
    25   13   30 1
    26   14   15 2
    27   14   16 1
    28   16   17 1
    29   17   18 1
    30   17   19 1
    31   17   20 1
    32   19   44 1
    33   19   45 1
    34   19   46 1
    35   20   25 ar
    36   20   21 ar
    37   21   22 ar
    38   22   23 ar
    39   22   29 1
    40   23   24 ar
    41   24   25 ar
    42   24   26 1
    43   26   27 1
    44   26   28 1
    45   27   47 1
    46   27   48 1
    47   27   49 1
    48   28   50 1
    49   28   51 1
    50   28   52 1
    51   29   53 1
    52   29   54 1
    53   30   35 ar
    54   30   31 ar
    55   31   32 ar
    56   31   55 1
    57   32   33 ar
    58   32   56 1
    59   33   34 ar
    60   33   57 1
    61   34   35 ar
    62   34   58 1
    63   35   59 1
    64   36   60 1
    65   36   61 1
@<TRIPOS>MOLECULE
ZINC38700911
   56    60     0     0     0
SMALL
USER_CHARGES

@<TRIPOS>ATOM
      1 C1         -3.5417   -3.2346    1.7041 C.3       1 <0>        -0.1044
      2 C2         -2.2026   -2.9739    1.0638 C.2       1 <0>        -0.0478
      3 C3         -1.8019   -3.3059   -0.3026 C.ar      1 <0>        -0.1232
      4 C4         -2.4437   -3.9162   -1.3837 C.ar      1 <0>        -0.0895
      5 C5         -1.7646   -4.0853   -2.5705 C.ar      1 <0>         0.0847
      6 C6         -0.4489   -3.6521   -2.6926 C.ar      1 <0>        -0.1056
      7 C7          0.1947   -3.0490   -1.6345 C.ar      1 <0>        -0.0794
      8 C8         -0.4706   -2.8675   -0.4276 C.ar      1 <0>         0.0740
      9 O1         -0.1082   -2.3245    0.7516 O.3       1 <0>        -0.1662
     10 C9         -1.1248   -2.3771    1.6376 C.2       1 <0>        -0.0191
     11 C10        -1.0733   -1.8691    3.0138 C.2       1 <0>         0.5510
     12 O2         -2.0472   -1.9677    3.7351 O.2       1 <0>        -0.4529
     13 O3          0.0543   -1.2931    3.4783 O.3       1 <0>        -0.2778
     14 C11         0.0257   -0.7460    4.7220 C.ar      1 <0>         0.1140
     15 C12        -0.0688    0.6305    4.8740 C.ar      1 <0>        -0.1187
     16 C13        -0.0983    1.1847    6.1383 C.ar      1 <0>        -0.0609
     17 C14        -0.0335    0.3730    7.2571 C.ar      1 <0>        -0.1143
     18 C15         0.0609   -1.0021    7.1113 C.ar      1 <0>         0.1340
     19 C16         0.0850   -1.5617    5.8402 C.ar      1 <0>        -0.1214
     20 O4          0.1255   -1.8138    8.1955 O.3       1 <0>        -0.2414
     21 C17         0.4825   -1.3108    9.3889 C.2       1 <0>         0.4455
     22 C18         0.4148    0.0146    9.6573 C.2       1 <0>        -0.2811
     23 C19        -0.0672    0.9969    8.6272 C.3       1 <0>         0.0797
     24 H1          0.5757    1.8770    8.6390 H         1 <0>         0.1075
     25 C20        -1.4794    1.4097    8.9532 C.ar      1 <0>        -0.0405
     26 C21        -2.4827    0.4578    8.9955 C.ar      1 <0>        -0.1124
     27 C22        -3.7776    0.8288    9.2933 C.ar      1 <0>        -0.0497
     28 C23        -4.0746    2.1683    9.5522 C.ar      1 <0>        -0.1272
     29 C24        -3.0572    3.1236    9.5078 C.ar      1 <0>        -0.0574
     30 C25        -1.7657    2.7380    9.2143 C.ar      1 <0>        -0.1243
     31 C26        -5.4590    2.5731    9.8713 C.2       1 <0>         0.5068
     32 O5         -6.3421    1.7398    9.9089 O.2       1 <0>        -0.5028
     33 O6         -5.7422    3.8663   10.1206 O.3       1 <0>        -0.3498
     34 C27        -7.1019    4.1862   10.4222 C.3       1 <0>         0.0341
     35 C28         0.8100    0.4900   10.9490 C.1       1 <0>         0.2710
     36 N1          1.1235    0.8670   11.9737 N.1       1 <0>        -0.4395
     37 N2          0.9288   -2.1660   10.3654 N.pl3     1 <0>        -0.8274
     38 F1         -2.3792   -4.6745   -3.6195 F         1 <0>        -0.1306
     39 H2         -4.1983   -2.3815    1.5335 H         1 <0>         0.0878
     40 H3         -3.9860   -4.1284    1.2660 H         1 <0>         0.0792
     41 H4         -3.4093   -3.3827    2.7758 H         1 <0>         0.0941
     42 H5         -3.4653   -4.2535   -1.2893 H         1 <0>         0.1476
     43 H6          0.0742   -3.7902   -3.6273 H         1 <0>         0.1551
     44 H7          1.2168   -2.7172   -1.7426 H         1 <0>         0.1513
     45 H8         -0.1196    1.2678    4.0035 H         1 <0>         0.1447
     46 H9         -0.1718    2.2559    6.2544 H         1 <0>         0.1479
     47 H10         0.1542   -2.6331    5.7235 H         1 <0>         0.1464
     48 H11        -2.2517   -0.5779    8.7947 H         1 <0>         0.1269
     49 H12        -4.5599    0.0849    9.3257 H         1 <0>         0.1383
     50 H13        -3.2803    4.1615    9.7067 H         1 <0>         0.1405
     51 H14        -0.9770    3.4752    9.1839 H         1 <0>         0.1346
     52 H15        -7.7365    3.9041    9.5821 H         1 <0>         0.0622
     53 H16        -7.4145    3.6409   11.3128 H         1 <0>         0.0619
     54 H17        -7.1918    5.2575   10.6019 H         1 <0>         0.1046
     55 H18         0.9828   -3.1182   10.1885 H         1 <0>         0.4130
     56 H19         1.1903   -1.8182   11.2323 H         1 <0>         0.4270
@<TRIPOS>BOND
     1    1    2 1
     2    1   39 1
     3    1   40 1
     4    1   41 1
     5    2   10 2
     6    2    3 1
     7    3    8 ar
     8    3    4 ar
     9    4    5 ar
    10    4   42 1
    11    5    6 ar
    12    5   38 1
    13    6    7 ar
    14    6   43 1
    15    7    8 ar
    16    7   44 1
    17    8    9 1
    18    9   10 1
    19   10   11 1
    20   11   12 2
    21   11   13 1
    22   13   14 1
    23   14   19 ar
    24   14   15 ar
    25   15   16 ar
    26   15   45 1
    27   16   17 ar
    28   16   46 1
    29   17   23 1
    30   17   18 ar
    31   18   19 ar
    32   18   20 1
    33   19   47 1
    34   20   21 1
    35   21   22 2
    36   21   37 1
    37   22   23 1
    38   22   35 1
    39   23   24 1
    40   23   25 1
    41   25   30 ar
    42   25   26 ar
    43   26   27 ar
    44   26   48 1
    45   27   28 ar
    46   27   49 1
    47   28   29 ar
    48   28   31 1
    49   29   30 ar
    50   29   50 1
    51   30   51 1
    52   31   32 2
    53   31   33 1
    54   33   34 1
    55   34   52 1
    56   34   53 1
    57   34   54 1
    58   35   36 3
    59   37   55 1
    60   37   56 1
@<TRIPOS>MOLECULE
ZINC57111288
   62    68     0     0     0
SMALL
USER_CHARGES

@<TRIPOS>ATOM
      1 C1         -0.1634    1.5423    0.0738 C.3       1 <0>        -0.1074
      2 C2         -0.2097    0.0360    0.0655 C.ar      1 <0>        -0.1131
      3 C3         -0.3238   -0.6474   -1.1315 C.ar      1 <0>        -0.0753
      4 C4         -0.3667   -2.0260   -1.1454 C.ar      1 <0>        -0.1435
      5 C5         -0.2956   -2.7412    0.0481 C.ar      1 <0>         0.1427
      6 C6         -0.1810   -2.0430    1.2455 C.ar      1 <0>        -0.1390
      7 C7         -0.1326   -0.6669    1.2549 C.ar      1 <0>        -0.0148
      8 C8         -0.1281   -3.0849    2.3309 C.3       1 <0>         0.1251
      9 C9         -0.2263   -4.4015    1.6031 C.2       1 <0>         0.5413
     10 O1         -0.2226   -5.5062    2.1037 O.2       1 <0>        -0.4748
     11 N1         -0.3183   -4.1158    0.2911 N.am      1 <0>        -0.6538
     12 C10         1.1651   -2.9895    3.1318 C.3       1 <0>        -0.0371
     13 C11         1.9957   -4.2360    3.0108 C.ar      1 <0>        -0.1710
     14 C12         1.7615   -5.5623    3.2975 C.ar      1 <0>        -0.0298
     15 C13         2.7497   -6.5044    3.0730 C.ar      1 <0>        -0.1449
     16 C14         3.9722   -6.1104    2.5604 C.ar      1 <0>        -0.0689
     17 C15         4.2115   -4.7830    2.2718 C.ar      1 <0>        -0.1458
     18 C16         3.2221   -3.8281    2.4948 C.ar      1 <0>         0.1533
     19 N2          3.2232   -2.4471    2.2870 N.am      1 <0>        -0.6566
     20 C17         2.0521   -1.8800    2.6348 C.2       1 <0>         0.5449
     21 O2          1.7674   -0.7033    2.5612 O.2       1 <0>        -0.4648
     22 C18         0.7389   -2.7446    4.5894 C.3       1 <0>        -0.1305
     23 H1          1.3950   -2.0162    5.0658 H         1 <0>         0.1160
     24 C19        -0.6935   -2.1771    4.4416 C.3       1 <0>         0.0661
     25 H2         -0.7007   -1.0972    4.2935 H         1 <0>         0.1222
     26 N3         -1.2513   -2.9218    3.2712 N.3       1 <0>        -0.4453
     27 C20        -1.6375   -4.2452    3.8168 C.3       1 <0>         0.0021
     28 C21        -2.1777   -3.9618    5.2324 C.3       1 <0>        -0.0937
     29 C22        -1.5354   -2.6089    5.6542 C.3       1 <0>        -0.1209
     30 C23         0.7270   -4.0363    5.3656 C.2       1 <0>         0.3642
     31 O3         -0.2823   -4.7068    5.4115 O.2       1 <0>        -0.3810
     32 C24         1.9404   -4.4840    6.0678 C.ar      1 <0>        -0.1448
     33 C25         3.1049   -3.7106    6.0219 C.ar      1 <0>        -0.0281
     34 C26         4.2376   -4.1368    6.6823 C.ar      1 <0>        -0.1203
     35 C27         4.2244   -5.3268    7.3894 C.ar      1 <0>        -0.0290
     36 C28         3.0762   -6.0976    7.4395 C.ar      1 <0>        -0.0532
     37 C29         1.9334   -5.6820    6.7890 C.ar      1 <0>        -0.0034
     38 N4          3.0730   -7.3685    8.1981 N.pl3     1 <0>         0.0320
     39 O4          4.0726   -7.7320    8.7728 O.2       1 <0>        -0.1525
     40 O5          2.0707   -8.0431    8.2429 O.3       1 <0>        -0.1501
     41 H3          0.8715    1.8744   -0.0089 H         1 <0>         0.0691
     42 H4         -0.7372    1.9281   -0.7687 H         1 <0>         0.0660
     43 H5         -0.5908    1.9138    1.0051 H         1 <0>         0.0672
     44 H6         -0.3798   -0.0988   -2.0601 H         1 <0>         0.1312
     45 H7         -0.4560   -2.5525   -2.0841 H         1 <0>         0.1267
     46 H8         -0.0385   -0.1361    2.1907 H         1 <0>         0.1445
     47 H9         -0.3924   -4.7872   -0.4050 H         1 <0>         0.4162
     48 H10         0.8060   -5.8673    3.6981 H         1 <0>         0.1493
     49 H11         2.5666   -7.5449    3.2973 H         1 <0>         0.1301
     50 H12         4.7436   -6.8457    2.3854 H         1 <0>         0.1329
     51 H13         5.1690   -4.4830    1.8722 H         1 <0>         0.1291
     52 H14         3.9796   -1.9535    1.9334 H         1 <0>         0.4183
     53 H15        -2.4146   -4.6959    3.1994 H         1 <0>         0.0696
     54 H16        -0.7681   -4.9005    3.8687 H         1 <0>         0.1142
     55 H17        -3.2639   -3.8732    5.2120 H         1 <0>         0.0571
     56 H18        -1.8748   -4.7530    5.9182 H         1 <0>         0.1001
     57 H19        -0.8975   -2.7403    6.5283 H         1 <0>         0.0681
     58 H20        -2.3086   -1.8685    5.8591 H         1 <0>         0.0783
     59 H21         3.1169   -2.7821    5.4703 H         1 <0>         0.1394
     60 H22         5.1376   -3.5409    6.6475 H         1 <0>         0.1534
     61 H23         5.1149   -5.6555    7.9044 H         1 <0>         0.1589
     62 H24         1.0368   -6.2824    6.8327 H         1 <0>         0.1637
@<TRIPOS>BOND
     1    1    2 1
     2    1   41 1
     3    1   42 1
     4    1   43 1
     5    2    7 ar
     6    2    3 ar
     7    3    4 ar
     8    3   44 1
     9    4    5 ar
    10    4   45 1
    11    5   11 1
    12    5    6 ar
    13    6    7 ar
    14    6    8 1
    15    7   46 1
    16    8   26 1
    17    8    9 1
    18    8   12 1
    19    9   10 2
    20    9   11 am
    21   11   47 1
    22   12   20 1
    23   12   13 1
    24   12   22 1
    25   13   18 ar
    26   13   14 ar
    27   14   15 ar
    28   14   48 1
    29   15   16 ar
    30   15   49 1
    31   16   17 ar
    32   16   50 1
    33   17   18 ar
    34   17   51 1
    35   18   19 1
    36   19   20 am
    37   19   52 1
    38   20   21 2
    39   22   23 1
    40   22   24 1
    41   22   30 1
    42   24   25 1
    43   24   29 1
    44   24   26 1
    45   26   27 1
    46   27   28 1
    47   27   53 1
    48   27   54 1
    49   28   29 1
    50   28   55 1
    51   28   56 1
    52   29   57 1
    53   29   58 1
    54   30   31 2
    55   30   32 1
    56   32   37 ar
    57   32   33 ar
    58   33   34 ar
    59   33   59 1
    60   34   35 ar
    61   34   60 1
    62   35   36 ar
    63   35   61 1
    64   36   37 ar
    65   36   38 1
    66   37   62 1
    67   38   39 2
    68   38   40 1
@<TRIPOS>MOLECULE
ZINC08872184
   51    55     0     0     0
SMALL
USER_CHARGES
4-[(3E)-3-[[5-(4-bromophenyl)-2-furyl]methylene]-2-oxo-5-phenyl-pyrrol-1-yl]benzoic acid
@<TRIPOS>ATOM
      1 C1         -4.4863    9.3687    0.2932 C.ar      1 <0>        -0.1052
      2 C2         -4.4056    8.1837   -0.4168 C.ar      1 <0>        -0.1231
      3 C3         -3.2110    7.4978   -0.4868 C.ar      1 <0>        -0.0901
      4 C4         -2.0810    8.0022    0.1612 C.ar      1 <0>        -0.0517
      5 C5         -2.1711    9.1961    0.8804 C.ar      1 <0>        -0.0824
      6 C6         -3.3708    9.8742    0.9376 C.ar      1 <0>        -0.1155
      7 C7         -0.7987    7.2733    0.0912 C.2       1 <0>         0.1776
      8 C8         -0.6545    5.9440    0.3002 C.2       1 <0>        -0.2008
      9 C9          0.7739    5.6415    0.1376 C.2       1 <0>        -0.1359
     10 C10         1.3958    4.4040    0.2621 C.2       1 <0>         0.0105
     11 C11         0.6383    3.2673    0.5844 C.2       1 <0>         0.0181
     12 C12         1.1295    1.9782    0.7386 C.2       1 <0>        -0.1605
     13 C13         0.0402    1.1672    1.0539 C.2       1 <0>        -0.1826
     14 C14        -1.0745    1.9786    1.0769 C.2       1 <0>         0.0323
     15 O1         -0.6948    3.2380    0.7977 O.3       1 <0>        -0.1459
     16 C15        -2.4531    1.5389    1.3636 C.ar      1 <0>        -0.0011
     17 C16        -2.7184    0.1945    1.6383 C.ar      1 <0>        -0.0917
     18 C17        -4.0084   -0.2085    1.9111 C.ar      1 <0>        -0.0866
     19 C18        -5.0419    0.7134    1.9020 C.ar      1 <0>        -0.0866
     20 C19        -4.7869    2.0462    1.6250 C.ar      1 <0>        -0.0848
     21 C20        -3.5008    2.4640    1.3561 C.ar      1 <0>        -0.0940
     22 Br1        -6.8090    0.1500    2.2702 Br        1 <0>        -0.0463
     23 C21         1.4030    6.9292   -0.1917 C.2       1 <0>         0.5456
     24 O2          2.5856    7.1231   -0.4115 O.2       1 <0>        -0.4819
     25 N1          0.4240    7.8532   -0.2041 N.am      1 <0>        -0.4967
     26 C22         0.6148    9.2088   -0.4762 C.ar      1 <0>         0.1085
     27 C23         0.0898    9.7638   -1.6390 C.ar      1 <0>        -0.1207
     28 C24         0.2712   11.1016   -1.9079 C.ar      1 <0>        -0.0669
     29 C25         0.9935   11.9003   -1.0163 C.ar      1 <0>        -0.0988
     30 C26         1.5244   11.3379    0.1483 C.ar      1 <0>        -0.0764
     31 C27         1.3345   10.0005    0.4131 C.ar      1 <0>        -0.1208
     32 C28         1.1951   13.3326   -1.3038 C.2       1 <0>         0.4879
     33 O3          1.8234   14.0254   -0.5281 O.co2     1 <0>        -0.6277
     34 H1         -5.4242    9.9018    0.3444 H         1 <0>         0.1243
     35 H2         -5.2802    7.7947   -0.9170 H         1 <0>         0.1260
     36 H3         -3.1495    6.5729   -1.0409 H         1 <0>         0.1265
     37 H4         -1.3023    9.5896    1.3872 H         1 <0>         0.1251
     38 H5         -3.4410   10.7994    1.4902 H         1 <0>         0.1278
     39 H6         -1.4380    5.2414    0.5429 H         1 <0>         0.1605
     40 H7          2.4616    4.3175    0.1108 H         1 <0>         0.1668
     41 H8          2.1576    1.6640    0.6347 H         1 <0>         0.1619
     42 H9          0.0642    0.1037    1.2403 H         1 <0>         0.1571
     43 H10        -1.9140   -0.5262    1.6412 H         1 <0>         0.1390
     44 H11        -4.2142   -1.2464    2.1275 H         1 <0>         0.1396
     45 H12        -5.5974    2.7600    1.6199 H         1 <0>         0.1395
     46 H13        -3.3033    3.5036    1.1406 H         1 <0>         0.1398
     47 H14        -0.4645    9.1453   -2.3293 H         1 <0>         0.1186
     48 H15        -0.1404   11.5327   -2.8085 H         1 <0>         0.1382
     49 H16         2.0826   11.9520    0.8395 H         1 <0>         0.1352
     50 H17         1.7444    9.5653    1.3126 H         1 <0>         0.1188
     51 O4          0.6827   13.8730   -2.4268 O.co2     1 <0>        -0.7503
@<TRIPOS>BOND
     1    1    6 ar
     2    1    2 ar
     3    1   34 1
     4    2    3 ar
     5    2   35 1
     6    3    4 ar
     7    3   36 1
     8    4    5 ar
     9    4    7 1
    10    5    6 ar
    11    5   37 1
    12    6   38 1
    13    7   25 1
    14    7    8 2
    15    8    9 1
    16    8   39 1
    17    9   10 2
    18    9   23 1
    19   10   11 1
    20   10   40 1
    21   11   15 1
    22   11   12 2
    23   12   13 1
    24   12   41 1
    25   13   14 2
    26   13   42 1
    27   14   15 1
    28   14   16 1
    29   16   21 ar
    30   16   17 ar
    31   17   18 ar
    32   17   43 1
    33   18   19 ar
    34   18   44 1
    35   19   20 ar
    36   19   22 1
    37   20   21 ar
    38   20   45 1
    39   21   46 1
    40   23   24 2
    41   23   25 am
    42   25   26 1
    43   26   31 ar
    44   26   27 ar
    45   27   28 ar
    46   27   47 1
    47   28   29 ar
    48   28   48 1
    49   29   30 ar
    50   29   32 1
    51   30   31 ar
    52   30   49 1
    53   31   50 1
    54   32   33 2
    55   32   51 1
@<TRIPOS>MOLECULE
ZINC20636418
   46    49     0     0     0
SMALL
USER_CHARGES
4-bromo-N-(5-methyl-2,4-diphenyl-pyrazol-3-yl)benzenesulfonamide
@<TRIPOS>ATOM
      1 C1         -0.1110    1.5938    0.0062 C.3       1 <0>        -0.0706
      2 C2         -0.8865    1.9365    1.2520 C.2       1 <0>         0.1059
      3 C3         -0.3323    2.2128    2.5173 C.2       1 <0>        -0.2950
      4 C4         -1.3834    2.4780    3.3780 C.2       1 <0>         0.4150
      5 N1         -2.5303    2.3653    2.6557 N.pl3     1 <0>        -0.3492
      6 N2         -2.1861    2.0333    1.3403 N.2       1 <0>        -0.3305
      7 C5         -3.8307    2.5528    3.1430 C.ar      1 <0>         0.1858
      8 C6         -4.1890    2.0429    4.3838 C.ar      1 <0>        -0.1034
      9 C7         -5.4701    2.2335    4.8635 C.ar      1 <0>        -0.1096
     10 C8         -6.3987    2.9219    4.1046 C.ar      1 <0>        -0.1377
     11 C9         -6.0463    3.4268    2.8664 C.ar      1 <0>        -0.1138
     12 C10        -4.7653    3.2440    2.3836 C.ar      1 <0>        -0.1235
     13 N3         -1.2853    2.7991    4.7248 N.2       1 <0>        -1.0543
     14 S1         -0.3995    4.1151    5.1999 S.o2      1 <0>         2.5997
     15 O1         -0.5791    4.2402    6.6039 O.2       1 <0>        -0.9956
     16 O2          0.8838    3.9770    4.6053 O.2       1 <0>        -0.9929
     17 C11        -1.1431    5.5353    4.4685 C.ar      1 <0>        -0.6436
     18 C12        -0.7983    5.9115    3.1838 C.ar      1 <0>        -0.0179
     19 C13        -1.3849    7.0227    2.6079 C.ar      1 <0>        -0.1168
     20 C14        -2.3093    7.7644    3.3212 C.ar      1 <0>        -0.0561
     21 C15        -2.6502    7.3905    4.6086 C.ar      1 <0>        -0.1179
     22 C16        -2.0669    6.2762    5.1817 C.ar      1 <0>        -0.0237
     23 Br1        -3.1074    9.2885    2.5363 Br        1 <0>        -0.0606
     24 C17         1.1096    2.2184    2.8629 C.ar      1 <0>         0.0746
     25 C18         1.6159    1.2865    3.7676 C.ar      1 <0>        -0.1048
     26 C19         2.9595    1.2937    4.0822 C.ar      1 <0>        -0.1233
     27 C20         3.8017    2.2298    3.5095 C.ar      1 <0>        -0.1394
     28 C21         3.3041    3.1601    2.6147 C.ar      1 <0>        -0.1185
     29 C22         1.9631    3.1594    2.2889 C.ar      1 <0>        -0.0856
     30 H1          0.9650    1.5857    0.2347 H         1 <0>         0.0750
     31 H2         -0.3151    2.3450   -0.7710 H         1 <0>         0.0673
     32 H3         -0.4168    0.6006   -0.3544 H         1 <0>         0.0678
     33 H4         -3.4655    1.5010    4.9749 H         1 <0>         0.1420
     34 H5         -5.7481    1.8407    5.8303 H         1 <0>         0.1237
     35 H6         -7.4011    3.0659    4.4798 H         1 <0>         0.1179
     36 H7         -6.7737    3.9644    2.2761 H         1 <0>         0.1200
     37 H8         -4.4907    3.6386    1.4165 H         1 <0>         0.1225
     38 H9         -0.0734    5.3348    2.6285 H         1 <0>         0.1402
     39 H10        -1.1187    7.3140    1.6026 H         1 <0>         0.1313
     40 H11        -3.3722    7.9691    5.1658 H         1 <0>         0.1322
     41 H12        -2.3333    5.9840    6.1868 H         1 <0>         0.1410
     42 H13         0.9585    0.5578    4.2185 H         1 <0>         0.1082
     43 H14         3.3536    0.5698    4.7801 H         1 <0>         0.1049
     44 H15         4.8519    2.2341    3.7615 H         1 <0>         0.1029
     45 H16         3.9662    3.8886    2.1706 H         1 <0>         0.1040
     46 H17         1.5756    3.8861    1.5902 H         1 <0>         0.1024
@<TRIPOS>BOND
     1    1    2 1
     2    1   30 1
     3    1   31 1
     4    1   32 1
     5    2    6 2
     6    2    3 1
     7    3    4 2
     8    3   24 1
     9    4    5 1
    10    4   13 1
    11    5    6 1
    12    5    7 1
    13    7   12 ar
    14    7    8 ar
    15    8    9 ar
    16    8   33 1
    17    9   10 ar
    18    9   34 1
    19   10   11 ar
    20   10   35 1
    21   11   12 ar
    22   11   36 1
    23   12   37 1
    24   13   14 1
    25   14   15 2
    26   14   16 2
    27   14   17 1
    28   17   22 ar
    29   17   18 ar
    30   18   19 ar
    31   18   38 1
    32   19   20 ar
    33   19   39 1
    34   20   21 ar
    35   20   23 1
    36   21   22 ar
    37   21   40 1
    38   22   41 1
    39   24   29 ar
    40   24   25 ar
    41   25   26 ar
    42   25   42 1
    43   26   27 ar
    44   26   43 1
    45   27   28 ar
    46   27   44 1
    47   28   29 ar
    48   28   45 1
    49   29   46 1
@<TRIPOS>MOLECULE
ZINC35421464
   49    53     0     0     0
SMALL
USER_CHARGES

@<TRIPOS>ATOM
      1 C1         -0.0167    1.3800    0.0096 C.ar      1 <0>        -0.1228
      2 C2          1.1681    2.0958    0.0022 C.ar      1 <0>        -0.1229
      3 C3          2.3775    1.4341   -0.0134 C.ar      1 <0>        -0.1057
      4 C4          2.4051    0.0353   -0.0211 C.ar      1 <0>        -0.0552
      5 C5          1.2031   -0.6808   -0.0130 C.ar      1 <0>        -0.1032
      6 C6          0.0021   -0.0041    0.0020 C.ar      1 <0>        -0.1156
      7 C7          3.6910   -0.6788   -0.0381 C.2       1 <0>        -0.0716
      8 C8          3.7135   -2.0292   -0.0455 C.2       1 <0>        -0.1916
      9 C9          4.9932   -2.7398   -0.0625 C.2       1 <0>         0.4505
     10 O1          6.0380   -2.1130   -0.0699 O.2       1 <0>        -0.4834
     11 C10         5.0177   -4.2072   -0.0705 C.2       1 <0>        -0.4661
     12 C11         6.1172   -4.9963   -0.0801 C.2       1 <0>         0.2861
     13 C12         5.6993   -6.4118   -0.0852 C.2       1 <0>         0.5111
     14 O2          6.4565   -7.3621   -0.0935 O.2       1 <0>        -0.4783
     15 N1          4.3565   -6.4949   -0.0789 N.am      1 <0>        -0.5033
     16 C13         3.8203   -5.1287   -0.0631 C.3       1 <0>         0.2554
     17 H1          3.2279   -4.9665    0.8374 H         1 <0>         0.0937
     18 C14         2.9765   -4.8921   -1.2891 C.ar      1 <0>        -0.0476
     19 C15         3.3576   -5.4294   -2.5047 C.ar      1 <0>        -0.0942
     20 C16         2.5842   -5.2127   -3.6296 C.ar      1 <0>        -0.1022
     21 C17         1.4293   -4.4583   -3.5399 C.ar      1 <0>        -0.1158
     22 C18         1.0475   -3.9205   -2.3240 C.ar      1 <0>        -0.0277
     23 C19         1.8190   -4.1428   -1.1970 C.ar      1 <0>        -0.0997
     24 Cl1        -0.4026   -2.9729   -2.2106 Cl        1 <0>        -0.0766
     25 C20         3.6127   -7.6618   -0.0811 C.2       1 <0>         0.4161
     26 N2          2.3078   -7.8065   -0.0815 N.2       1 <0>        -0.5471
     27 C21         1.7119   -9.0185   -0.0837 C.ar      1 <0>         0.1281
     28 C22         0.3282   -9.3110   -0.0839 C.ar      1 <0>        -0.0638
     29 C23        -0.1135  -10.6080   -0.0854 C.ar      1 <0>        -0.0953
     30 C24         0.7734  -11.6764   -0.0872 C.ar      1 <0>        -0.0378
     31 C25         2.1344  -11.4267   -0.0875 C.ar      1 <0>        -0.0409
     32 C26         2.5852  -10.1302   -0.0856 C.ar      1 <0>        -0.1750
     33 S1          4.1840   -9.3553   -0.0919 S.3       1 <0>         0.0665
     34 Cl2         0.1810  -13.3082   -0.0884 Cl        1 <0>        -0.0627
     35 O3          7.3976   -4.5569   -0.0847 O.3       1 <0>        -0.5877
     36 H2         -0.9608    1.9043    0.0260 H         1 <0>         0.1179
     37 H3          1.1450    3.1755    0.0081 H         1 <0>         0.1203
     38 H4          3.3010    1.9940   -0.0199 H         1 <0>         0.1247
     39 H5          1.2161   -1.7607   -0.0192 H         1 <0>         0.1232
     40 H6         -0.9266   -0.5553    0.0082 H         1 <0>         0.1191
     41 H7          4.6171   -0.1232   -0.0447 H         1 <0>         0.1311
     42 H8          2.7874   -2.5848   -0.0390 H         1 <0>         0.1238
     43 H9          4.2601   -6.0183   -2.5754 H         1 <0>         0.1174
     44 H10         2.8824   -5.6327   -4.5789 H         1 <0>         0.1282
     45 H11         0.8255   -4.2885   -4.4191 H         1 <0>         0.1289
     46 H12         1.5191   -3.7269   -0.2465 H         1 <0>         0.1314
     47 H13        -0.3883   -8.5029   -0.0826 H         1 <0>         0.1404
     48 H14        -1.1757  -10.8038   -0.0848 H         1 <0>         0.1401
     49 H15         2.8374  -12.2466   -0.0889 H         1 <0>         0.1398
@<TRIPOS>BOND
     1    1    6 ar
     2    1    2 ar
     3    1   36 1
     4    2    3 ar
     5    2   37 1
     6    3    4 ar
     7    3   38 1
     8    4    5 ar
     9    4    7 1
    10    5    6 ar
    11    5   39 1
    12    6   40 1
    13    7    8 2
    14    7   41 1
    15    8    9 1
    16    8   42 1
    17    9   10 2
    18    9   11 1
    19   11   16 1
    20   11   12 2
    21   12   13 1
    22   12   35 1
    23   13   14 2
    24   13   15 am
    25   15   16 1
    26   15   25 1
    27   16   17 1
    28   16   18 1
    29   18   23 ar
    30   18   19 ar
    31   19   20 ar
    32   19   43 1
    33   20   21 ar
    34   20   44 1
    35   21   22 ar
    36   21   45 1
    37   22   23 ar
    38   22   24 1
    39   23   46 1
    40   25   33 1
    41   25   26 2
    42   26   27 1
    43   27   32 ar
    44   27   28 ar
    45   28   29 ar
    46   28   47 1
    47   29   30 ar
    48   29   48 1
    49   30   31 ar
    50   30   34 1
    51   31   32 ar
    52   31   49 1
    53   32   33 1
@<TRIPOS>MOLECULE
ZINC39997436
   39    41     0     0     0
SMALL
USER_CHARGES

@<TRIPOS>ATOM
      1 C1          0.2657    1.3560    0.8518 C.ar      1 <0>        -0.1020
      2 C2          1.1818    2.0851    0.1120 C.ar      1 <0>        -0.1078
      3 C3          2.1220    1.4392   -0.6715 C.ar      1 <0>        -0.0931
      4 C4          2.1542    0.0608   -0.7217 C.ar      1 <0>        -0.0721
      5 C5          1.2310   -0.6846    0.0243 C.ar      1 <0>        -0.0450
      6 C6          0.2830   -0.0212    0.8143 C.ar      1 <0>        -0.0953
      7 C7          1.2568   -2.1503   -0.0223 C.2       1 <0>        -0.0061
      8 C8          0.0847   -2.8631    0.0894 C.2       1 <0>        -0.0138
      9 C9         -1.1720   -2.1767    0.1062 C.1       1 <0>         0.2731
     10 N1         -2.1688   -1.6321    0.1195 N.1       1 <0>        -0.4252
     11 C10         0.1228   -4.3290    0.1915 C.2       1 <0>         0.4657
     12 O1          1.3104   -4.9777    0.1756 O.3       1 <0>        -0.6204
     13 N2         -0.9963   -5.0096    0.2982 N.2       1 <0>        -0.6011
     14 C11        -0.9610   -6.3641    0.3925 C.2       1 <0>         0.3659
     15 N3          0.0794   -7.1936    0.4030 N.2       1 <0>        -0.3410
     16 N4         -0.0678   -8.4426    0.4983 N.2       1 <0>        -0.2410
     17 C12        -1.2671   -9.0029    0.5936 C.2       1 <0>        -0.0716
     18 S1         -2.3008   -7.5418    0.5459 S.3       1 <0>        -0.0596
     19 S2         -1.7144  -10.7013    0.7346 S.3       1 <0>         0.0093
     20 C13        -0.1253  -11.5760    0.7237 C.3       1 <0>        -0.0705
     21 C14        -0.3673  -13.0589    0.8400 C.ar      1 <0>        -0.0633
     22 C15        -0.4291  -13.6532    2.0867 C.ar      1 <0>        -0.0877
     23 C16        -0.6511  -15.0132    2.1940 C.ar      1 <0>        -0.1105
     24 C17        -0.8114  -15.7798    1.0535 C.ar      1 <0>        -0.0324
     25 C18        -0.7494  -15.1844   -0.1939 C.ar      1 <0>        -0.1105
     26 C19        -0.5331  -13.8234   -0.2997 C.ar      1 <0>        -0.0876
     27 Cl1        -1.0897  -17.4881    1.1875 Cl        1 <0>        -0.0747
     28 Br1         3.4391   -0.8197   -1.7940 Br        1 <0>        -0.0364
     29 H1         -0.4618    1.8686    1.4637 H         1 <0>         0.1318
     30 H2          1.1621    3.1644    0.1464 H         1 <0>         0.1326
     31 H3          2.8324    2.0158   -1.2454 H         1 <0>         0.1357
     32 H4         -0.4321   -0.5877    1.3923 H         1 <0>         0.1347
     33 H5          2.1955   -2.6703   -0.1442 H         1 <0>         0.1680
     34 H6          0.3990  -11.3655   -0.2084 H         1 <0>         0.1034
     35 H7          0.4804  -11.2396    1.5652 H         1 <0>         0.1035
     36 H8         -0.3036  -13.0547    2.9769 H         1 <0>         0.1375
     37 H9         -0.6990  -15.4774    3.1680 H         1 <0>         0.1349
     38 H10        -0.8742  -15.7824   -1.0845 H         1 <0>         0.1349
     39 H11        -0.4894  -13.3578   -1.2732 H         1 <0>         0.1375
@<TRIPOS>BOND
     1    1    6 ar
     2    1    2 ar
     3    1   29 1
     4    2    3 ar
     5    2   30 1
     6    3    4 ar
     7    3   31 1
     8    4    5 ar
     9    4   28 1
    10    5    6 ar
    11    5    7 1
    12    6   32 1
    13    7    8 2
    14    7   33 1
    15    8    9 1
    16    8   11 1
    17    9   10 3
    18   11   12 1
    19   11   13 2
    20   13   14 1
    21   14   18 1
    22   14   15 2
    23   15   16 1
    24   16   17 2
    25   17   18 1
    26   17   19 1
    27   19   20 1
    28   20   21 1
    29   20   34 1
    30   20   35 1
    31   21   26 ar
    32   21   22 ar
    33   22   23 ar
    34   22   36 1
    35   23   24 ar
    36   23   37 1
    37   24   25 ar
    38   24   27 1
    39   25   26 ar
    40   25   38 1
    41   26   39 1
@<TRIPOS>MOLECULE
ZINC59105456
   70    73     0     0     0
SMALL
USER_CHARGES

@<TRIPOS>ATOM
      1 C1          5.2798    1.4733    0.5671 C.3       1 <0>        -0.1454
      2 C2          5.1175   -0.0479    0.5849 C.3       1 <0>         0.0650
      3 O1          4.7130   -0.4990   -0.7093 O.3       1 <0>        -0.3176
      4 C3          4.5252   -1.8223   -0.8638 C.2       1 <0>         0.4960
      5 O2          4.7186   -2.6551    0.1751 O.3       1 <0>        -0.6302
      6 C4          4.1315   -2.3289   -2.0964 C.2       1 <0>        -0.4638
      7 C5          3.9140   -3.7647   -2.3141 C.2       1 <0>         0.3348
      8 S1          3.4326   -3.8688   -4.0251 S.3       1 <0>        -0.1314
      9 C6          3.4979   -2.1475   -4.4756 C.2       1 <0>        -0.1770
     10 C7          3.2274   -1.5874   -5.6830 C.2       1 <0>         0.0182
     11 C8          3.1775   -0.1273   -5.8198 C.2       1 <0>        -0.1330
     12 C9          2.6240    0.8316   -4.8558 C.2       1 <0>        -0.1010
     13 C10         2.7908    2.0535   -5.3905 C.2       1 <0>        -0.0043
     14 N1          3.4020    1.9318   -6.6065 N.pl3     1 <0>        -0.4057
     15 C11         3.6469    0.6241   -6.8784 C.2       1 <0>         0.0437
     16 C12         4.3116    0.0871   -8.1197 C.3       1 <0>        -0.0811
     17 C13         3.7326    3.0019   -7.4488 C.ar      1 <0>         0.1257
     18 C14         3.1120    3.1324   -8.6839 C.ar      1 <0>        -0.1097
     19 C15         3.4401    4.1881   -9.5119 C.ar      1 <0>        -0.1052
     20 C16         4.3858    5.1142   -9.1120 C.ar      1 <0>        -0.0690
     21 C17         5.0057    4.9869   -7.8824 C.ar      1 <0>        -0.1095
     22 C18         4.6774    3.9369   -7.0474 C.ar      1 <0>        -0.1072
     23 C19         4.7421    6.2644  -10.0182 C.3       1 <0>        -0.0296
     24 C20         3.4930    7.1046  -10.2911 C.3       1 <0>        -0.1390
     25 C21         5.8048    7.1346   -9.3441 C.3       1 <0>        -0.1461
     26 C22         5.2904    5.7217  -11.3395 C.3       1 <0>        -0.1391
     27 C23         2.3700    3.3515   -4.7506 C.3       1 <0>        -0.0752
     28 C24         3.9059   -1.4745   -3.2379 C.2       1 <0>         0.4251
     29 O3          4.0497   -0.2645   -3.1777 O.2       1 <0>        -0.4730
     30 N2          4.0454   -4.7487   -1.4444 N.2       1 <0>        -0.4861
     31 C25         3.7986   -6.0364   -1.8275 C.ar      1 <0>         0.1300
     32 C26         2.6681   -6.3371   -2.5925 C.ar      1 <0>        -0.1662
     33 C27         2.4258   -7.6395   -2.9760 C.ar      1 <0>        -0.0965
     34 C28         3.2987   -8.6474   -2.6053 C.ar      1 <0>        -0.1297
     35 C29         4.4198   -8.3574   -1.8476 C.ar      1 <0>        -0.1034
     36 C30         4.6784   -7.0590   -1.4615 C.ar      1 <0>        -0.1250
     37 C31         3.0266  -10.0680   -3.0284 C.3       1 <0>        -0.1032
     38 H1          6.0369    1.7494   -0.1669 H         1 <0>         0.0601
     39 H2          4.3298    1.9370    0.3012 H         1 <0>         0.0608
     40 H3          5.5883    1.8174    1.5543 H         1 <0>         0.0660
     41 H4          6.0675   -0.5116    0.8508 H         1 <0>         0.0539
     42 H5          4.3604   -0.3240    1.3189 H         1 <0>         0.0543
     43 H6          3.0491   -2.2167   -6.5424 H         1 <0>         0.1247
     44 H7          2.1707    0.6003   -3.9032 H         1 <0>         0.1428
     45 H8          3.5553   -0.1158   -8.8780 H         1 <0>         0.0690
     46 H9          5.0194    0.8234   -8.5004 H         1 <0>         0.0609
     47 H10         4.8408   -0.8348   -7.8786 H         1 <0>         0.0806
     48 H11         2.3738    2.4090   -8.9971 H         1 <0>         0.1271
     49 H12         2.9577    4.2902  -10.4727 H         1 <0>         0.1265
     50 H13         5.7439    5.7119   -7.5729 H         1 <0>         0.1324
     51 H14         5.1586    3.8405   -6.0854 H         1 <0>         0.1288
     52 H15         3.1023    7.4912   -9.3498 H         1 <0>         0.0571
     53 H16         3.7507    7.9365  -10.9466 H         1 <0>         0.0585
     54 H17         2.7359    6.4847  -10.7714 H         1 <0>         0.0572
     55 H18         6.6948    6.5360   -9.1497 H         1 <0>         0.0597
     56 H19         6.0625    7.9665   -9.9996 H         1 <0>         0.0585
     57 H20         5.4142    7.5212   -8.4028 H         1 <0>         0.0596
     58 H21         4.5334    5.1018  -11.8198 H         1 <0>         0.0573
     59 H22         5.5481    6.5536  -11.9950 H         1 <0>         0.0585
     60 H23         6.1804    5.1231  -11.1451 H         1 <0>         0.0573
     61 H24         3.1873    3.7382   -4.1419 H         1 <0>         0.0657
     62 H25         2.1210    4.0752   -5.5267 H         1 <0>         0.0545
     63 H26         1.4974    3.1798   -4.1205 H         1 <0>         0.0758
     64 H27         1.9858   -5.5516   -2.8822 H         1 <0>         0.1252
     65 H28         1.5525   -7.8734   -3.5667 H         1 <0>         0.1144
     66 H29         5.0964   -9.1493   -1.5618 H         1 <0>         0.1161
     67 H30         5.5562   -6.8335   -0.8740 H         1 <0>         0.1218
     68 H31         3.5024  -10.2579   -3.9906 H         1 <0>         0.0616
     69 H32         3.4296  -10.7528   -2.2823 H         1 <0>         0.0589
     70 H33         1.9512  -10.2206   -3.1185 H         1 <0>         0.0590
@<TRIPOS>BOND
     1    1    2 1
     2    1   38 1
     3    1   39 1
     4    1   40 1
     5    2    3 1
     6    2   41 1
     7    2   42 1
     8    3    4 1
     9    4    5 1
    10    4    6 2
    11    6    7 1
    12    6   28 1
    13    7   30 2
    14    7    8 1
    15    8    9 1
    16    9   10 2
    17    9   28 1
    18   10   11 1
    19   10   43 1
    20   11   15 2
    21   11   12 1
    22   12   13 2
    23   12   44 1
    24   13   14 1
    25   13   27 1
    26   14   15 1
    27   14   17 1
    28   15   16 1
    29   16   45 1
    30   16   46 1
    31   16   47 1
    32   17   22 ar
    33   17   18 ar
    34   18   19 ar
    35   18   48 1
    36   19   20 ar
    37   19   49 1
    38   20   21 ar
    39   20   23 1
    40   21   22 ar
    41   21   50 1
    42   22   51 1
    43   23   24 1
    44   23   25 1
    45   23   26 1
    46   24   52 1
    47   24   53 1
    48   24   54 1
    49   25   55 1
    50   25   56 1
    51   25   57 1
    52   26   58 1
    53   26   59 1
    54   26   60 1
    55   27   61 1
    56   27   62 1
    57   27   63 1
    58   28   29 2
    59   30   31 1
    60   31   36 ar
    61   31   32 ar
    62   32   33 ar
    63   32   64 1
    64   33   34 ar
    65   33   65 1
    66   34   35 ar
    67   34   37 1
    68   35   36 ar
    69   35   66 1
    70   36   67 1
    71   37   68 1
    72   37   69 1
    73   37   70 1
@<TRIPOS>MOLECULE
ZINC64558255
   62    65     0     0     0
SMALL
USER_CHARGES

@<TRIPOS>ATOM
      1 C1         -0.0187    1.5258    0.0104 C.3       1 <0>        -0.1452
      2 C2          0.0021   -0.0041    0.0020 C.3       1 <0>        -0.0798
      3 C3          0.7074   -0.4901   -1.2379 C.ar      1 <0>        -0.0813
      4 C4         -0.0105   -0.7185   -2.3969 C.ar      1 <0>        -0.1109
      5 C5          0.6365   -1.1643   -3.5342 C.ar      1 <0>        -0.1164
      6 C6          2.0016   -1.3812   -3.5126 C.ar      1 <0>        -0.0844
      7 C7          2.7197   -1.1520   -2.3539 C.ar      1 <0>        -0.0833
      8 C8          2.0733   -0.7021   -1.2178 C.ar      1 <0>        -0.1139
      9 C9          2.7068   -1.8682   -4.7522 C.3       1 <0>         0.2754
     10 H1          2.1055   -1.6522   -5.6354 H         1 <0>         0.0865
     11 C10         2.9705   -3.3526   -4.6522 C.2       1 <0>        -0.9492
     12 C11         4.2921   -3.5179   -4.7064 C.2       1 <0>         0.3247
     13 C12         4.9495   -2.2097   -4.8397 C.2       1 <0>         0.5111
     14 O1          6.1509   -2.0368   -4.9143 O.2       1 <0>        -0.5067
     15 N1          4.0243   -1.2302   -4.8686 N.am      1 <0>        -0.5466
     16 C13         4.2721    0.1408   -4.9874 C.ar      1 <0>         0.1906
     17 C14         3.2143    1.0410   -4.9976 C.ar      1 <0>        -0.1537
     18 C15         3.4625    2.3945   -5.1146 C.ar      1 <0>        -0.0888
     19 C16         4.7624    2.8539   -5.2216 C.ar      1 <0>        -0.1171
     20 C17         5.8178    1.9604   -5.2118 C.ar      1 <0>        -0.0853
     21 C18         5.5769    0.6060   -5.0897 C.ar      1 <0>        -0.1607
     22 C19         5.0295    4.3315   -5.3496 C.3       1 <0>        -0.0493
     23 C20         5.8972    4.7964   -4.1783 C.3       1 <0>        -0.1434
     24 C21         5.7599    4.6056   -6.6657 C.3       1 <0>        -0.1438
     25 O2          4.9347   -4.7149   -4.6475 O.3       1 <0>        -0.6013
     26 S1          1.7607   -4.6238   -4.4938 S.o2      1 <0>         2.6195
     27 O3          0.7804   -4.3782   -5.4927 O.2       1 <0>        -0.9762
     28 O4          2.4707   -5.8517   -4.4087 O.2       1 <0>        -0.9414
     29 C22         0.9640   -4.3939   -2.9391 C.ar      1 <0>        -0.6513
     30 C23         1.4672   -5.0075   -1.8071 C.ar      1 <0>        -0.0128
     31 C24         0.8422   -4.8271   -0.5874 C.ar      1 <0>        -0.1479
     32 C25        -0.2858   -4.0329   -0.4996 C.ar      1 <0>        -0.0425
     33 C26        -0.7885   -3.4186   -1.6313 C.ar      1 <0>        -0.1383
     34 C27        -0.1609   -3.5955   -2.8503 C.ar      1 <0>        -0.0098
     35 C28        -0.9678   -3.8371    0.8300 C.3       1 <0>        -0.1165
     36 H2          1.0039    1.9031    0.0027 H         1 <0>         0.0541
     37 H3         -0.5459    1.8868   -0.8726 H         1 <0>         0.0548
     38 H4         -0.5289    1.8773    0.9072 H         1 <0>         0.0524
     39 H5          0.5293   -0.3651    0.8851 H         1 <0>         0.0656
     40 H6         -1.0205   -0.3814    0.0098 H         1 <0>         0.0675
     41 H7         -1.0770   -0.5490   -2.4137 H         1 <0>         0.1168
     42 H8          0.0755   -1.3434   -4.4395 H         1 <0>         0.1259
     43 H9          3.7861   -1.3218   -2.3370 H         1 <0>         0.1114
     44 H10         2.6349   -0.5194   -0.3136 H         1 <0>         0.1120
     45 H11         2.1989    0.6828   -4.9144 H         1 <0>         0.1262
     46 H12         2.6405    3.0949   -5.1229 H         1 <0>         0.1190
     47 H13         6.8319    2.3225   -5.2958 H         1 <0>         0.1194
     48 H14         6.4018   -0.0909   -5.0780 H         1 <0>         0.1494
     49 H15         4.0840    4.8739   -5.3390 H         1 <0>         0.0726
     50 H16         6.8426    4.2540   -4.1889 H         1 <0>         0.0558
     51 H17         6.0903    5.8651   -4.2709 H         1 <0>         0.0530
     52 H18         5.3768    4.6011   -3.2407 H         1 <0>         0.0545
     53 H19         5.1417    4.2745   -7.5002 H         1 <0>         0.0551
     54 H20         5.9531    5.6744   -6.7583 H         1 <0>         0.0530
     55 H21         6.7054    4.0633   -6.6763 H         1 <0>         0.0560
     56 H22         2.3485   -5.6280   -1.8758 H         1 <0>         0.1364
     57 H23         1.2349   -5.3071    0.2968 H         1 <0>         0.1214
     58 H24        -1.6700   -2.7984   -1.5627 H         1 <0>         0.1206
     59 H25        -0.5515   -3.1126   -3.7338 H         1 <0>         0.1352
     60 H26        -0.5405   -2.9698    1.3332 H         1 <0>         0.0716
     61 H27        -2.0341   -3.6763    0.6711 H         1 <0>         0.0654
     62 H28        -0.8220   -4.7237    1.4471 H         1 <0>         0.0651
@<TRIPOS>BOND
     1    1    2 1
     2    1   36 1
     3    1   37 1
     4    1   38 1
     5    2    3 1
     6    2   39 1
     7    2   40 1
     8    3    8 ar
     9    3    4 ar
    10    4    5 ar
    11    4   41 1
    12    5    6 ar
    13    5   42 1
    14    6    7 ar
    15    6    9 1
    16    7    8 ar
    17    7   43 1
    18    8   44 1
    19    9   10 1
    20    9   15 1
    21    9   11 1
    22   11   12 2
    23   11   26 1
    24   12   13 1
    25   12   25 1
    26   13   14 2
    27   13   15 am
    28   15   16 1
    29   16   21 ar
    30   16   17 ar
    31   17   18 ar
    32   17   45 1
    33   18   19 ar
    34   18   46 1
    35   19   20 ar
    36   19   22 1
    37   20   21 ar
    38   20   47 1
    39   21   48 1
    40   22   23 1
    41   22   24 1
    42   22   49 1
    43   23   50 1
    44   23   51 1
    45   23   52 1
    46   24   53 1
    47   24   54 1
    48   24   55 1
    49   26   27 2
    50   26   28 2
    51   26   29 1
    52   29   34 ar
    53   29   30 ar
    54   30   31 ar
    55   30   56 1
    56   31   32 ar
    57   31   57 1
    58   32   33 ar
    59   32   35 1
    60   33   34 ar
    61   33   58 1
    62   34   59 1
    63   35   60 1
    64   35   61 1
    65   35   62 1
@<TRIPOS>MOLECULE
ZINC09403690
   43    46     0     0     0
SMALL
USER_CHARGES
(5R)-4-benzoyl-1-(3-bromophenyl)-5-(3-fluorophenyl)-3-hydroxy-5H-pyrrol-2-one
@<TRIPOS>ATOM
      1 C1          0.1509    6.5830   -3.2940 C.ar      1 <0>        -0.1058
      2 C2         -0.6072    6.8069   -2.1581 C.ar      1 <0>        -0.1374
      3 C3         -0.5068    5.9538   -1.0790 C.ar      1 <0>        -0.0743
      4 C4          0.3624    4.8621   -1.1345 C.ar      1 <0>        -0.1391
      5 C5          1.1287    4.6455   -2.2817 C.ar      1 <0>        -0.0661
      6 C6          1.0139    5.5029   -3.3560 C.ar      1 <0>        -0.1380
      7 C7          0.4753    3.9433    0.0185 C.2       1 <0>         0.5046
      8 O1         -0.2628    4.0759    0.9766 O.2       1 <0>        -0.4679
      9 C8          1.4763    2.8730    0.0072 C.2       1 <0>        -0.4940
     10 C9          1.2343    1.5409   -0.0186 C.2       1 <0>         0.2687
     11 C10         2.5206    0.8141   -0.0271 C.2       1 <0>         0.5105
     12 O2          2.6381   -0.3951   -0.0526 O.2       1 <0>        -0.5026
     13 N1          3.5427    1.6886   -0.0017 N.am      1 <0>        -0.5514
     14 C11         2.9775    3.0428    0.0250 C.3       1 <0>         0.2607
     15 H1          3.3390    3.6197   -0.8390 H         1 <0>         0.0812
     16 C12         3.4074    3.7591    1.2792 C.ar      1 <0>        -0.0513
     17 C13         3.3497    3.1112    2.4993 C.ar      1 <0>        -0.0963
     18 C14         3.7482    3.7653    3.6499 C.ar      1 <0>        -0.0892
     19 C15         4.1950    5.0716    3.5834 C.ar      1 <0>        -0.1581
     20 C16         4.2483    5.7231    2.3630 C.ar      1 <0>         0.0946
     21 C17         3.8537    5.0649    1.2103 C.ar      1 <0>        -0.1492
     22 F1          4.6844    7.0000    2.2969 F         1 <0>        -0.1442
     23 C18         4.9022    1.3648   -0.0004 C.ar      1 <0>         0.2002
     24 C19         5.8580    2.3730    0.0222 C.ar      1 <0>        -0.1471
     25 C20         7.2005    2.0500    0.0274 C.ar      1 <0>        -0.0841
     26 C21         7.5948    0.7247    0.0008 C.ar      1 <0>        -0.1301
     27 C22         6.6460   -0.2820   -0.0267 C.ar      1 <0>        -0.0582
     28 C23         5.3007    0.0346   -0.0275 C.ar      1 <0>        -0.1369
     29 Br1         7.1905   -2.0925   -0.0636 Br        1 <0>        -0.0551
     30 O3          0.0095    0.9669   -0.0393 O.3       1 <0>        -0.6393
     31 H2          0.0684    7.2541   -4.1362 H         1 <0>         0.1189
     32 H3         -1.2793    7.6513   -2.1166 H         1 <0>         0.1212
     33 H4         -1.0992    6.1294   -0.1932 H         1 <0>         0.1284
     34 H5          1.8065    3.8059   -2.3293 H         1 <0>         0.1320
     35 H6          1.6024    5.3338   -4.2456 H         1 <0>         0.1222
     36 H7          2.9968    2.0919    2.5528 H         1 <0>         0.1228
     37 H8          3.7065    3.2569    4.6019 H         1 <0>         0.1298
     38 H9          4.5021    5.5840    4.4832 H         1 <0>         0.1306
     39 H10         3.8952    5.5721    0.2576 H         1 <0>         0.1338
     40 H11         5.5511    3.4083    0.0393 H         1 <0>         0.1317
     41 H12         7.9436    2.8334    0.0487 H         1 <0>         0.1321
     42 H13         8.6456    0.4750    0.0010 H         1 <0>         0.1288
     43 H14         4.5603   -0.7513   -0.0490 H         1 <0>         0.1630
@<TRIPOS>BOND
     1    1    6 ar
     2    1    2 ar
     3    1   31 1
     4    2    3 ar
     5    2   32 1
     6    3    4 ar
     7    3   33 1
     8    4    5 ar
     9    4    7 1
    10    5    6 ar
    11    5   34 1
    12    6   35 1
    13    7    8 2
    14    7    9 1
    15    9   14 1
    16    9   10 2
    17   10   11 1
    18   10   30 1
    19   11   12 2
    20   11   13 am
    21   13   14 1
    22   13   23 1
    23   14   15 1
    24   14   16 1
    25   16   21 ar
    26   16   17 ar
    27   17   18 ar
    28   17   36 1
    29   18   19 ar
    30   18   37 1
    31   19   20 ar
    32   19   38 1
    33   20   21 ar
    34   20   22 1
    35   21   39 1
    36   23   28 ar
    37   23   24 ar
    38   24   25 ar
    39   24   40 1
    40   25   26 ar
    41   25   41 1
    42   26   27 ar
    43   26   42 1
    44   27   28 ar
    45   27   29 1
    46   28   43 1
@<TRIPOS>MOLECULE
ZINC33297763
   44    46     0     0     0
SMALL
USER_CHARGES
4-(4-tert-butylthiazol-2-yl)-N-(4-chloro-2-methyl-phenyl)thiophene-2-sulfonamide
@<TRIPOS>ATOM
      1 C1         -1.3022   -4.7221    4.2480 C.3       1 <0>        -0.0802
      2 C2         -2.7226   -4.7021    3.7450 C.ar      1 <0>        -0.1205
      3 C3         -3.7495   -4.3257    4.5888 C.ar      1 <0>        -0.0871
      4 C4         -5.0546   -4.3134    4.1295 C.ar      1 <0>        -0.1012
      5 C5         -5.3343   -4.6715    2.8222 C.ar      1 <0>        -0.0795
      6 C6         -4.3110   -5.0426    1.9726 C.ar      1 <0>        -0.2254
      7 C7         -2.9998   -5.0563    2.4311 C.ar      1 <0>         0.2379
      8 N1         -1.9622   -5.4314    1.5735 N.2       1 <0>        -1.0392
      9 S1         -2.0274   -5.0276   -0.0312 S.o2      1 <0>         2.6002
     10 O1         -3.2743   -5.5032   -0.5193 O.2       1 <0>        -1.0256
     11 O2         -0.7862   -5.4218   -0.5999 O.2       1 <0>        -0.9840
     12 C8         -2.0879   -3.2691   -0.1238 C.2       1 <0>        -0.6886
     13 C9         -1.0658   -2.3889   -0.2024 C.2       1 <0>        -0.0375
     14 C10        -1.3500   -1.0262   -0.2665 C.2       1 <0>        -0.0816
     15 C11        -2.6615   -0.6330   -0.2413 C.2       1 <0>        -0.1192
     16 S2         -3.5147   -2.1973   -0.1371 S.3       1 <0>         0.1851
     17 C12        -0.2623   -0.0294   -0.3535 C.2       1 <0>         0.1918
     18 N2         -0.3360    1.2928   -0.4219 N.2       1 <0>        -0.4999
     19 C13         0.7481    2.0323   -0.4953 C.2       1 <0>         0.0749
     20 C14         1.9708    1.4425   -0.5020 C.2       1 <0>        -0.2151
     21 S3          1.5073   -0.2814   -0.3953 S.3       1 <0>         0.0066
     22 C15         0.6338    3.5330   -0.5726 C.3       1 <0>         0.0007
     23 C16         0.9235    3.9936   -2.0025 C.3       1 <0>        -0.1376
     24 C17        -0.7818    3.9577   -0.1768 C.3       1 <0>        -0.1281
     25 C18         1.6438    4.1712    0.3833 C.3       1 <0>        -0.1403
     26 Cl1        -6.3436   -3.8474    5.1949 Cl        1 <0>        -0.1124
     27 H1         -1.2827   -4.4135    5.3036 H         1 <0>         0.0411
     28 H2         -0.6922   -4.0277    3.6516 H         1 <0>         0.0604
     29 H3         -0.8949   -5.7398    4.1559 H         1 <0>         0.0658
     30 H4         -3.5341   -4.0455    5.6093 H         1 <0>         0.1155
     31 H5         -6.3540   -4.6609    2.4663 H         1 <0>         0.1147
     32 H6         -4.5299   -5.3222    0.9526 H         1 <0>         0.1533
     33 H7         -0.0434   -2.7364   -0.2151 H         1 <0>         0.1437
     34 H8         -3.0730    0.3650   -0.2767 H         1 <0>         0.1965
     35 H9          2.9520    1.8905   -0.5567 H         1 <0>         0.1935
     36 H10         0.8401    5.0890   -2.0589 H         1 <0>         0.0615
     37 H11         0.1975    3.5347   -2.6897 H         1 <0>         0.0569
     38 H12         1.9413    3.6883   -2.2869 H         1 <0>         0.0558
     39 H13        -0.8652    5.0531   -0.2332 H         1 <0>         0.0507
     40 H14        -0.9900    3.6266    0.8513 H         1 <0>         0.0554
     41 H15        -1.5079    3.4988   -0.8639 H         1 <0>         0.0639
     42 H16         1.5604    5.2666    0.3269 H         1 <0>         0.0622
     43 H17         2.6615    3.8658    0.0988 H         1 <0>         0.0570
     44 H18         1.4355    3.8400    1.4114 H         1 <0>         0.0577
@<TRIPOS>BOND
     1    1    2 1
     2    1   27 1
     3    1   28 1
     4    1   29 1
     5    2    7 ar
     6    2    3 ar
     7    3    4 ar
     8    3   30 1
     9    4    5 ar
    10    4   26 1
    11    5    6 ar
    12    5   31 1
    13    6    7 ar
    14    6   32 1
    15    7    8 1
    16    8    9 1
    17    9   10 2
    18    9   11 2
    19    9   12 1
    20   12   16 1
    21   12   13 2
    22   13   14 1
    23   13   33 1
    24   14   15 2
    25   14   17 1
    26   15   16 1
    27   15   34 1
    28   17   21 1
    29   17   18 2
    30   18   19 1
    31   19   20 2
    32   19   22 1
    33   20   21 1
    34   20   35 1
    35   22   23 1
    36   22   24 1
    37   22   25 1
    38   23   36 1
    39   23   37 1
    40   23   38 1
    41   24   39 1
    42   24   40 1
    43   24   41 1
    44   25   42 1
    45   25   43 1
    46   25   44 1
@<TRIPOS>MOLECULE
ZINC39290528
   70    72     0     0     0
SMALL
USER_CHARGES

@<TRIPOS>ATOM
      1 C1          0.9711   -0.5152   -2.3724 C.3       1 <0>        -0.1582
      2 C2          1.7746    0.0576   -1.2031 C.3       1 <0>        -0.0799
      3 H1          1.0913    0.4003   -0.4260 H         1 <0>         0.0669
      4 C3          2.6206    1.2342   -1.6935 C.3       1 <0>        -0.1139
      5 C4          1.7012    2.3766   -2.1299 C.3       1 <0>        -0.1212
      6 C5          2.5473    3.5533   -2.6204 C.3       1 <0>        -0.1149
      7 C6          1.6278    4.6957   -3.0567 C.3       1 <0>        -0.0982
      8 C7          2.4722    5.9160   -3.4292 C.3       1 <0>        -0.1476
      9 C8          0.8065    4.2543   -4.2698 C.3       1 <0>        -0.1488
     10 C9          2.6910   -1.0274   -0.6340 C.3       1 <0>        -0.0727
     11 H2          3.3625   -0.6011    0.1113 H         1 <0>         0.0602
     12 C10         3.5051   -1.6933   -1.7714 C.3       1 <0>        -0.1163
     13 C11         3.0448   -3.1755   -1.8296 C.3       1 <0>        -0.1299
     14 C12         1.6437   -3.1243   -1.2103 C.3       1 <0>        -0.0712
     15 H3          0.9298   -2.7057   -1.9196 H         1 <0>         0.0639
     16 C13         1.8622   -2.1498   -0.0183 C.3       1 <0>        -0.0474
     17 C14         0.4944   -1.7690    0.5136 C.3       1 <0>        -0.1002
     18 C15        -0.1508   -3.0485    1.0713 C.3       1 <0>        -0.1317
     19 C16        -0.2438   -4.1366    0.0060 C.3       1 <0>        -0.0430
     20 H4         -0.9321   -3.8128   -0.7747 H         1 <0>         0.0486
     21 C17         1.1224   -4.4335   -0.6465 C.3       1 <0>        -0.1552
     22 H5          1.0156   -5.1657   -1.4468 H         1 <0>         0.0629
     23 C18         2.0704   -4.9536    0.4032 C.2       1 <0>         0.5268
     24 O1          1.6967   -5.0711    1.5578 O.co2     1 <0>        -0.6544
     25 O2          3.2111   -5.2570    0.0978 O.co2     1 <0>        -0.6845
     26 C19        -0.7811   -5.4183    0.6460 C.3       1 <0>        -0.0320
     27 C20        -0.2057   -6.6261   -0.0921 C.3       1 <0>        -0.1083
     28 C21        -0.6073   -7.9065    0.6540 C.3       1 <0>        -0.1678
     29 C22         0.0055   -7.8325    2.0374 C.2       1 <0>         0.4011
     30 O3          0.5213   -8.8049    2.5478 O.2       1 <0>        -0.4995
     31 C23        -0.0455   -6.5454    2.7388 C.2       1 <0>        -0.2887
     32 C24        -0.4023   -5.4396    2.0970 C.2       1 <0>         0.0579
     33 C25        -2.3062   -5.4378    0.5252 C.3       1 <0>        -0.1401
     34 C26         2.6689   -2.8465    1.0792 C.3       1 <0>        -0.2451
     35 H6          0.2531   -1.2445   -1.9972 H         1 <0>         0.0663
     36 H7          0.4395    0.2912   -2.8775 H         1 <0>         0.0444
     37 H8          1.6482   -1.0004   -3.0754 H         1 <0>         0.0600
     38 H9          3.2684    1.5772   -0.8868 H         1 <0>         0.0561
     39 H10         3.2306    0.9157   -2.5388 H         1 <0>         0.0595
     40 H11         1.0534    2.0337   -2.9367 H         1 <0>         0.0657
     41 H12         1.0912    2.6952   -1.2846 H         1 <0>         0.0572
     42 H13         3.1950    3.8962   -1.8136 H         1 <0>         0.0588
     43 H14         3.1573    3.2348   -3.4657 H         1 <0>         0.0595
     44 H15         0.9564    4.9546   -2.2381 H         1 <0>         0.0673
     45 H16         3.1436    5.6571   -4.2479 H         1 <0>         0.0529
     46 H17         1.8171    6.7299   -3.7401 H         1 <0>         0.0513
     47 H18         3.0573    6.2305   -2.5650 H         1 <0>         0.0526
     48 H19         0.2049    3.3849   -4.0044 H         1 <0>         0.0579
     49 H20         0.1514    5.0682   -4.5807 H         1 <0>         0.0498
     50 H21         1.4779    3.9954   -5.0885 H         1 <0>         0.0526
     51 H22         3.2957   -1.1990   -2.7201 H         1 <0>         0.0576
     52 H23         4.5708   -1.6409   -1.5489 H         1 <0>         0.0490
     53 H24         2.9980   -3.5246   -2.8611 H         1 <0>         0.0430
     54 H25         3.7055   -3.8081   -1.2368 H         1 <0>         0.1070
     55 H26         0.5978   -1.0293    1.3075 H         1 <0>         0.0487
     56 H27        -0.1181   -1.3659   -0.2928 H         1 <0>         0.0550
     57 H28         0.4485   -3.4157    1.9045 H         1 <0>         0.1068
     58 H29        -1.1530   -2.8148    1.4305 H         1 <0>         0.0429
     59 H30        -0.6020   -6.6560   -1.1071 H         1 <0>         0.0605
     60 H31         0.8810   -6.5492   -0.1257 H         1 <0>         0.0918
     61 H32        -1.6930   -7.9653    0.7320 H         1 <0>         0.0880
     62 H33        -0.2248   -8.7794    0.1252 H         1 <0>         0.0772
     63 H34         0.2097   -6.4969    3.7871 H         1 <0>         0.1114
     64 H35        -0.4208   -4.5100    2.6465 H         1 <0>         0.1141
     65 H36        -2.5867   -5.5014   -0.5261 H         1 <0>         0.0550
     66 H37        -2.7019   -6.3015    1.0597 H         1 <0>         0.0535
     67 H38        -2.7166   -4.5246    0.9562 H         1 <0>         0.0551
     68 H39         3.1325   -2.0971    1.7208 H         1 <0>         0.0100
     69 H40         2.0060   -3.4744    1.6745 H         1 <0>         0.1470
     70 H41         3.4431   -3.4644    0.6244 H         1 <0>         0.0970
@<TRIPOS>BOND
     1    1    2 1
     2    1   35 1
     3    1   36 1
     4    1   37 1
     5    2    3 1
     6    2    4 1
     7    2   10 1
     8    4    5 1
     9    4   38 1
    10    4   39 1
    11    5    6 1
    12    5   40 1
    13    5   41 1
    14    6    7 1
    15    6   42 1
    16    6   43 1
    17    7    8 1
    18    7    9 1
    19    7   44 1
    20    8   45 1
    21    8   46 1
    22    8   47 1
    23    9   48 1
    24    9   49 1
    25    9   50 1
    26   10   11 1
    27   10   16 1
    28   10   12 1
    29   12   13 1
    30   12   51 1
    31   12   52 1
    32   13   14 1
    33   13   53 1
    34   13   54 1
    35   14   15 1
    36   14   21 1
    37   14   16 1
    38   16   17 1
    39   16   34 1
    40   17   18 1
    41   17   55 1
    42   17   56 1
    43   18   19 1
    44   18   57 1
    45   18   58 1
    46   19   20 1
    47   19   21 1
    48   19   26 1
    49   21   22 1
    50   21   23 1
    51   23   24 2
    52   23   25 1
    53   26   32 1
    54   26   27 1
    55   26   33 1
    56   27   28 1
    57   27   59 1
    58   27   60 1
    59   28   29 1
    60   28   61 1
    61   28   62 1
    62   29   30 2
    63   29   31 1
    64   31   32 2
    65   31   63 1
    66   32   64 1
    67   33   65 1
    68   33   66 1
    69   33   67 1
    70   34   68 1
    71   34   69 1
    72   34   70 1
@<TRIPOS>MOLECULE
ZINC58821993
   40    43     0     0     0
SMALL
USER_CHARGES

@<TRIPOS>ATOM
      1 C1          0.5291    1.8279    2.1228 C.ar      1 <0>        -0.1215
      2 C2          1.7649    2.4668    2.0386 C.ar      1 <0>        -0.1125
      3 C3          2.8893    1.7767    1.7045 C.ar      1 <0>        -0.1139
      4 C4          2.8066    0.3988    1.4402 C.ar      1 <0>        -0.0393
      5 C5          1.5499   -0.2511    1.5263 C.ar      1 <0>        -0.0520
      6 C6          0.4107    0.4952    1.8738 C.ar      1 <0>        -0.1009
      7 C7          1.4673   -1.6287    1.2626 C.ar      1 <0>        -0.1057
      8 C8          2.5920   -2.3191    0.9289 C.ar      1 <0>        -0.1100
      9 C9          3.8274   -1.6804    0.8447 C.ar      1 <0>        -0.0852
     10 C10         3.9455   -0.3471    1.0929 C.ar      1 <0>        -0.0882
     11 C11         5.2906    0.3252    0.9955 C.3       1 <0>         0.1019
     12 O1          6.2798   -0.6391    0.6300 O.3       1 <0>        -0.2985
     13 C12         7.5551   -0.1942    0.4990 C.ar      1 <0>         0.1612
     14 C13         7.8531    1.1404    0.7222 C.ar      1 <0>        -0.2030
     15 C14         9.1516    1.5930    0.5887 C.ar      1 <0>        -0.0592
     16 C15        10.1676    0.7189    0.2313 C.ar      1 <0>        -0.0677
     17 C16         9.8923   -0.6122    0.0048 C.ar      1 <0>        -0.0535
     18 C17         8.5810   -1.0862    0.1417 C.ar      1 <0>        -0.0864
     19 C18         8.2799   -2.5017   -0.0919 C.2       1 <0>         0.0338
     20 C19         9.1573   -3.2793   -0.7857 C.2       1 <0>        -0.1723
     21 C20         9.1429   -4.6889   -1.0162 C.2       1 <0>         0.4849
     22 O2          8.1539   -5.4628   -0.5149 O.3       1 <0>        -0.5777
     23 N1         10.1002   -5.2072   -1.7175 N.2       1 <0>        -0.6213
     24 C21        11.0920   -4.4557   -2.2250 C.2       1 <0>         0.3779
     25 S1         12.4353   -4.9412   -3.1690 S.2       1 <0>        -0.5259
     26 S2         10.6434   -2.8176   -1.6678 S.3       1 <0>        -0.1533
     27 Cl1        11.7936    1.3047    0.0680 Cl        1 <0>        -0.0645
     28 H1         -0.3471    2.3981    2.3940 H         1 <0>         0.1224
     29 H2          1.8312    3.5256    2.2412 H         1 <0>         0.1229
     30 H3          3.8400    2.2853    1.6424 H         1 <0>         0.1249
     31 H4         -0.5534    0.0135    1.9433 H         1 <0>         0.1273
     32 H5          0.5165   -2.1372    1.3247 H         1 <0>         0.1283
     33 H6          2.5258   -3.3780    0.7267 H         1 <0>         0.1291
     34 H7          4.7044   -2.2516    0.5782 H         1 <0>         0.1383
     35 H8          5.2510    1.1095    0.2395 H         1 <0>         0.0807
     36 H9          5.5487    0.7629    1.9599 H         1 <0>         0.0807
     37 H10         7.0687    1.8283    1.0009 H         1 <0>         0.1396
     38 H11         9.3771    2.6346    0.7635 H         1 <0>         0.1380
     39 H12        10.6862   -1.2894   -0.2737 H         1 <0>         0.1623
     40 H13         7.3624   -2.9281    0.2860 H         1 <0>         0.1582
@<TRIPOS>BOND
     1    1    6 ar
     2    1    2 ar
     3    1   28 1
     4    2    3 ar
     5    2   29 1
     6    3    4 ar
     7    3   30 1
     8    4   10 ar
     9    4    5 ar
    10    5    6 ar
    11    5    7 ar
    12    6   31 1
    13    7    8 ar
    14    7   32 1
    15    8    9 ar
    16    8   33 1
    17    9   10 ar
    18    9   34 1
    19   10   11 1
    20   11   12 1
    21   11   35 1
    22   11   36 1
    23   12   13 1
    24   13   18 ar
    25   13   14 ar
    26   14   15 ar
    27   14   37 1
    28   15   16 ar
    29   15   38 1
    30   16   17 ar
    31   16   27 1
    32   17   18 ar
    33   17   39 1
    34   18   19 1
    35   19   20 2
    36   19   40 1
    37   20   26 1
    38   20   21 1
    39   21   22 1
    40   21   23 2
    41   23   24 1
    42   24   25 2
    43   24   26 1
@<TRIPOS>MOLECULE
ZINC02561897
   38    41     0     0     0
SMALL
USER_CHARGES

@<TRIPOS>ATOM
      1 C1         -0.0167    1.3785    0.0096 C.ar      1 <0>        -0.1194
      2 C2          1.1697    2.0888    0.0021 C.ar      1 <0>        -0.1090
      3 C3          2.3774    1.4186   -0.0130 C.ar      1 <0>        -0.0799
      4 C4          2.3993    0.0307   -0.0206 C.ar      1 <0>         0.1528
      5 C5          1.2067   -0.6797   -0.0130 C.ar      1 <0>        -0.1175
      6 C6          0.0021   -0.0041    0.0020 C.ar      1 <0>        -0.1135
      7 N1          3.6240   -0.6526   -0.0364 N.pl3     1 <0>        -0.4488
      8 C7          4.1147   -1.4489   -1.0370 C.2       1 <0>         0.1078
      9 N2          5.2790   -1.8862   -0.6482 N.2       1 <0>        -0.2601
     10 N3          5.5575   -1.4262    0.5190 N.2       1 <0>        -0.3383
     11 C8          4.5803   -0.6579    0.9418 C.2       1 <0>         0.3870
     12 S1          4.5118    0.2002    2.4792 S.3       1 <0>        -0.7859
     13 C9          3.4340   -1.7620   -2.3445 C.3       1 <0>         0.1664
     14 O1          3.8089   -0.7889   -3.3216 O.3       1 <0>        -0.3034
     15 C10         3.2784   -0.9271   -4.5651 C.ar      1 <0>         0.1539
     16 C11         2.4043   -1.9865   -4.8286 C.ar      1 <0>        -0.1852
     17 C12         1.8571   -2.1509   -6.0626 C.ar      1 <0>        -0.0594
     18 C13         2.1716   -1.2453   -7.0910 C.ar      1 <0>        -0.0863
     19 C14         1.6236   -1.3852   -8.3773 C.ar      1 <0>        -0.0550
     20 C15         1.9496   -0.4895   -9.3500 C.ar      1 <0>        -0.1023
     21 C16         2.8211    0.5676   -9.0893 C.ar      1 <0>        -0.0895
     22 C17         3.3709    0.7339   -7.8557 C.ar      1 <0>        -0.1024
     23 C18         3.0573   -0.1707   -6.8263 C.ar      1 <0>         0.0001
     24 C19         3.6013   -0.0264   -5.5394 C.ar      1 <0>        -0.1604
     25 Br1         1.2102   -0.6822  -11.0797 Br        1 <0>        -0.0585
     26 H1         -0.9597    1.9046    0.0260 H         1 <0>         0.1236
     27 H2          1.1520    3.1687    0.0077 H         1 <0>         0.1271
     28 H3          3.3036    1.9739   -0.0192 H         1 <0>         0.1272
     29 H4          1.2208   -1.7596   -0.0193 H         1 <0>         0.1218
     30 H5         -0.9261   -0.5562    0.0082 H         1 <0>         0.1260
     31 H6          3.7367   -2.7527   -2.6836 H         1 <0>         0.0928
     32 H7          2.3531   -1.7399   -2.2059 H         1 <0>         0.0751
     33 H8          2.1608   -2.6843   -4.0410 H         1 <0>         0.1355
     34 H9          1.1839   -2.9739   -6.2519 H         1 <0>         0.1351
     35 H10         0.9476   -2.1992   -8.5937 H         1 <0>         0.1357
     36 H11         3.0635    1.2642   -9.8781 H         1 <0>         0.1316
     37 H12         4.0448    1.5568   -7.6684 H         1 <0>         0.1369
     38 H13         4.2742    0.7901   -5.3228 H         1 <0>         0.1384
@<TRIPOS>BOND
     1    1    6 ar
     2    1    2 ar
     3    1   26 1
     4    2    3 ar
     5    2   27 1
     6    3    4 ar
     7    3   28 1
     8    4    5 ar
     9    4    7 1
    10    5    6 ar
    11    5   29 1
    12    6   30 1
    13    7   11 1
    14    7    8 1
    15    8   13 1
    16    8    9 2
    17    9   10 1
    18   10   11 2
    19   11   12 1
    20   13   14 1
    21   13   31 1
    22   13   32 1
    23   14   15 1
    24   15   24 ar
    25   15   16 ar
    26   16   17 ar
    27   16   33 1
    28   17   18 ar
    29   17   34 1
    30   18   23 ar
    31   18   19 ar
    32   19   20 ar
    33   19   35 1
    34   20   21 ar
    35   20   25 1
    36   21   22 ar
    37   21   36 1
    38   22   23 ar
    39   22   37 1
    40   23   24 ar
    41   24   38 1
@<TRIPOS>MOLECULE
ZINC13298410
   62    65     0     0     0
SMALL
USER_CHARGES
(4S)-4-[(5R,8S,9R,10S,13R,14S,17R)-10,13-dimethyl-3-oxo-1,2,4,5,6,7,8,9,14,15,16,17-dodecahydrocyclopenta[a]phenanthren-17-yl]pentanoic acid
@<TRIPOS>ATOM
      1 C1          0.3179    5.5480   -7.0675 C.3       1 <0>        -0.1482
      2 C2         -0.7779    4.5955   -6.5849 C.3       1 <0>        -0.0897
      3 H1         -1.7553    5.0213   -6.8117 H         1 <0>         0.0723
      4 C3         -0.6313    3.2481   -7.2947 C.3       1 <0>        -0.0972
      5 C4         -0.8845    3.4305   -8.7926 C.3       1 <0>        -0.1578
      6 C5         -0.7402    2.1034   -9.4918 C.2       1 <0>         0.4574
      7 O1         -0.4633    1.1132   -8.8572 O.co2     1 <0>        -0.6427
      8 C6         -0.6483    4.3928   -5.0748 C.3       1 <0>        -0.0676
      9 H2          0.3101    3.9428   -4.8274 H         1 <0>         0.0706
     10 C7         -0.8301    5.7420   -4.3299 C.3       1 <0>        -0.1174
     11 C8         -1.9460    5.5153   -3.2698 C.3       1 <0>        -0.1133
     12 C9         -1.9369    3.9945   -3.0982 C.3       1 <0>        -0.0811
     13 H3         -1.0255    3.7243   -2.5415 H         1 <0>         0.0729
     14 C10        -1.7885    3.5174   -4.5635 C.3       1 <0>        -0.0284
     15 C11        -1.6159    2.0470   -4.5615 C.2       1 <0>        -0.1235
     16 C12        -2.1285    1.3163   -3.6078 C.2       1 <0>        -0.1659
     17 C13        -2.9245    1.8187   -2.4304 C.3       1 <0>        -0.0240
     18 H4         -3.9211    1.3446   -2.4788 H         1 <0>         0.0723
     19 C14        -3.1191    3.3250   -2.4726 C.3       1 <0>        -0.0694
     20 H5         -3.9841    3.4918   -3.1338 H         1 <0>         0.0625
     21 C15        -3.5549    3.9520   -1.1642 C.3       1 <0>        -0.1065
     22 C16        -2.7086    3.4609    0.0078 C.3       1 <0>        -0.1206
     23 C17        -2.8637    1.9382    0.0846 C.3       1 <0>        -0.0683
     24 H6         -3.9299    1.6909    0.1084 H         1 <0>         0.0818
     25 C18        -2.2344    1.3164   -1.1567 C.3       1 <0>        -0.0411
     26 C19        -0.7412    1.6252   -1.2234 C.3       1 <0>        -0.1083
     27 C20        -0.0127    1.0818    0.0080 C.3       1 <0>        -0.1647
     28 C21        -0.7047    1.5927    1.2506 C.2       1 <0>         0.3642
     29 O2         -0.0751    2.1242    2.1349 O.2       1 <0>        -0.4637
     30 C22        -2.2022    1.4229    1.3618 C.3       1 <0>        -0.1570
     31 C23        -2.4299   -0.2087   -1.0883 C.3       1 <0>        -0.1515
     32 C24        -3.0312    3.8621   -5.3820 C.3       1 <0>        -0.1440
     33 H7          1.2953    5.1222   -6.8406 H         1 <0>         0.0499
     34 H8          0.2255    5.6925   -8.1439 H         1 <0>         0.0568
     35 H9          0.2135    6.5079   -6.5618 H         1 <0>         0.0471
     36 H10         0.3771    2.8641   -7.1408 H         1 <0>         0.0560
     37 H11        -1.3550    2.5421   -6.8873 H         1 <0>         0.0703
     38 H12        -1.8930    3.8145   -8.9465 H         1 <0>         0.0583
     39 H13        -0.1608    4.1365   -9.2000 H         1 <0>         0.0620
     40 H14        -1.1287    6.5215   -5.0297 H         1 <0>         0.0657
     41 H15         0.1012    6.0216   -3.8348 H         1 <0>         0.0586
     42 H16        -2.9079    5.8767   -3.6198 H         1 <0>         0.0661
     43 H17        -1.6794    6.0035   -2.3283 H         1 <0>         0.0569
     44 H18        -1.0593    1.5730   -5.3573 H         1 <0>         0.1210
     45 H19        -1.9691    0.2494   -3.6858 H         1 <0>         0.1010
     46 H20        -3.4609    5.0354   -1.2449 H         1 <0>         0.0652
     47 H21        -4.6002    3.7002   -0.9843 H         1 <0>         0.0595
     48 H22        -1.6652    3.7263   -0.1447 H         1 <0>         0.0663
     49 H23        -3.0679    3.9111    0.9350 H         1 <0>         0.0613
     50 H24        -0.5882    2.7049   -1.2657 H         1 <0>         0.0734
     51 H25        -0.3123    1.1729   -2.1203 H         1 <0>         0.0831
     52 H26        -0.0266    0.0821   -0.0106 H         1 <0>         0.0913
     53 H27         1.0204    1.4473    0.0001 H         1 <0>         0.0857
     54 H28        -2.5321    1.9508    2.1444 H         1 <0>         0.0768
     55 H29        -2.4487    0.3769    1.5290 H         1 <0>         0.0985
     56 H30        -1.9344   -0.5991   -0.1993 H         1 <0>         0.0545
     57 H31        -3.4947   -0.4367   -1.0404 H         1 <0>         0.0563
     58 H32        -1.9991   -0.6705   -1.9767 H         1 <0>         0.0628
     59 H33        -3.1794    4.9420   -5.3802 H         1 <0>         0.0561
     60 H34        -2.8989    3.5153   -6.4069 H         1 <0>         0.0705
     61 H35        -3.9019    3.3750   -4.9431 H         1 <0>         0.0483
     62 O3         -0.9193    2.0213  -10.8195 O.co2     1 <0>        -0.7811
@<TRIPOS>BOND
     1    1    2 1
     2    1   33 1
     3    1   34 1
     4    1   35 1
     5    2    3 1
     6    2    4 1
     7    2    8 1
     8    4    5 1
     9    4   36 1
    10    4   37 1
    11    5    6 1
    12    5   38 1
    13    5   39 1
    14    6    7 2
    15    6   62 1
    16    8    9 1
    17    8   14 1
    18    8   10 1
    19   10   11 1
    20   10   40 1
    21   10   41 1
    22   11   12 1
    23   11   42 1
    24   11   43 1
    25   12   13 1
    26   12   19 1
    27   12   14 1
    28   14   15 1
    29   14   32 1
    30   15   16 2
    31   15   44 1
    32   16   17 1
    33   16   45 1
    34   17   18 1
    35   17   25 1
    36   17   19 1
    37   19   20 1
    38   19   21 1
    39   21   22 1
    40   21   46 1
    41   21   47 1
    42   22   23 1
    43   22   48 1
    44   22   49 1
    45   23   24 1
    46   23   30 1
    47   23   25 1
    48   25   26 1
    49   25   31 1
    50   26   27 1
    51   26   50 1
    52   26   51 1
    53   27   28 1
    54   27   52 1
    55   27   53 1
    56   28   29 2
    57   28   30 1
    58   30   54 1
    59   30   55 1
    60   31   56 1
    61   31   57 1
    62   31   58 1
    63   32   59 1
    64   32   60 1
    65   32   61 1
@<TRIPOS>MOLECULE
ZINC17129835
   36    38     0     0     0
SMALL
USER_CHARGES
4-(2-chlorophenyl)azo-5-methyl-3-phenyl-pyrazole-1-carbodithioic acid
@<TRIPOS>ATOM
      1 C1         -1.2337    2.2558   -0.1823 C.3       1 <0>        -0.1156
      2 C2         -0.0089    1.3832   -0.0849 C.2       1 <0>         0.1919
      3 C3          0.0508    0.0327   -0.3536 C.2       1 <0>        -0.1009
      4 C4          1.4425   -0.3755   -0.1277 C.2       1 <0>         0.1842
      5 N1          2.1063    0.6947    0.2443 N.2       1 <0>        -0.2385
      6 N2          1.2344    1.7868    0.2775 N.pl3     1 <0>        -0.3024
      7 C5          1.5762    3.0456    0.6169 C.2       1 <0>         0.4297
      8 S1          3.2125    3.4305    0.9409 S.2       1 <0>        -0.5607
      9 S2          0.3387    4.2951    0.7271 S.3       1 <0>        -0.6490
     10 C6          1.9957   -1.7412   -0.2897 C.ar      1 <0>        -0.0143
     11 C7          1.2300   -2.8524    0.0604 C.ar      1 <0>        -0.0751
     12 C8          1.7483   -4.1215   -0.0976 C.ar      1 <0>        -0.1262
     13 C9          3.0292   -4.2919   -0.5915 C.ar      1 <0>        -0.1093
     14 C10         3.7956   -3.1929   -0.9356 C.ar      1 <0>        -0.1247
     15 C11         3.2857   -1.9191   -0.7874 C.ar      1 <0>        -0.0818
     16 N3         -0.9801   -0.7668   -0.7516 N.2       1 <0>        -0.1313
     17 N4         -2.1468   -0.2582   -0.9617 N.2       1 <0>        -0.2674
     18 C12        -3.2012   -1.0713   -1.2730 C.ar      1 <0>         0.0841
     19 C13        -2.9957   -2.4371   -1.4857 C.ar      1 <0>        -0.1087
     20 C14        -4.0636   -3.2511   -1.7993 C.ar      1 <0>        -0.1153
     21 C15        -5.3373   -2.7191   -1.9039 C.ar      1 <0>        -0.1042
     22 C16        -5.5496   -1.3684   -1.6946 C.ar      1 <0>        -0.1110
     23 C17        -4.4911   -0.5414   -1.3746 C.ar      1 <0>        -0.0005
     24 Cl1        -4.7600    1.1524   -1.1057 Cl        1 <0>        -0.0468
     25 H1         -2.0931    1.6472   -0.5002 H         1 <0>         0.1106
     26 H2         -1.0575    3.0542   -0.9182 H         1 <0>         0.1011
     27 H3         -1.4444    2.7029    0.8004 H         1 <0>         0.1073
     28 H4          0.2316   -2.7203    0.4506 H         1 <0>         0.1298
     29 H5          1.1543   -4.9833    0.1688 H         1 <0>         0.1254
     30 H6          3.4324   -5.2869   -0.7092 H         1 <0>         0.1221
     31 H7          4.7949   -3.3319   -1.3207 H         1 <0>         0.1258
     32 H8          3.8848   -1.0618   -1.0567 H         1 <0>         0.1303
     33 H9         -2.0028   -2.8541   -1.4049 H         1 <0>         0.1422
     34 H10        -3.9059   -4.3068   -1.9635 H         1 <0>         0.1293
     35 H11        -6.1695   -3.3620   -2.1499 H         1 <0>         0.1320
     36 H12        -6.5461   -0.9604   -1.7776 H         1 <0>         0.1380
@<TRIPOS>BOND
     1    1    2 1
     2    1   25 1
     3    1   26 1
     4    1   27 1
     5    2    6 1
     6    2    3 2
     7    3    4 1
     8    3   16 1
     9    4    5 2
    10    4   10 1
    11    5    6 1
    12    6    7 1
    13    7    8 2
    14    7    9 1
    15   10   15 ar
    16   10   11 ar
    17   11   12 ar
    18   11   28 1
    19   12   13 ar
    20   12   29 1
    21   13   14 ar
    22   13   30 1
    23   14   15 ar
    24   14   31 1
    25   15   32 1
    26   16   17 2
    27   17   18 1
    28   18   23 ar
    29   18   19 ar
    30   19   20 ar
    31   19   33 1
    32   20   21 ar
    33   20   34 1
    34   21   22 ar
    35   21   35 1
    36   22   23 ar
    37   22   36 1
    38   23   24 1
@<TRIPOS>MOLECULE
ZINC37385933
   29    30     0     0     0
SMALL
USER_CHARGES

@<TRIPOS>ATOM
      1 C1         -2.0782   -1.3224   -1.7862 C.3       1 <0>        -0.1128
      2 C2         -0.8903   -1.3635   -0.8598 C.ar      1 <0>        -0.0619
      3 C3          0.2763   -0.7048   -1.2030 C.ar      1 <0>        -0.1716
      4 C4          1.3685   -0.7393   -0.3561 C.ar      1 <0>        -0.0910
      5 C5          1.2980   -1.4329    0.8377 C.ar      1 <0>        -0.0719
      6 C6          0.1276   -2.0959    1.1858 C.ar      1 <0>         0.2732
      7 C7         -0.9700   -2.0546    0.3343 C.ar      1 <0>        -0.1117
      8 Cl1        -2.4373   -2.8751    0.7674 Cl        1 <0>        -0.0425
      9 N1          0.0526   -2.7985    2.3924 N.2       1 <0>        -1.1135
     10 S1         -0.0494   -4.4513    2.3832 S.o2      1 <0>         2.6062
     11 O1         -1.2953   -4.7780    1.7828 O.2       1 <0>        -1.0103
     12 O2          1.1888   -4.9318    1.8781 O.2       1 <0>        -1.0255
     13 C8         -0.1464   -4.9767    4.0622 C.ar      1 <0>        -0.5977
     14 C9          1.0100   -5.2512    4.7682 C.ar      1 <0>        -0.0185
     15 C10         0.9345   -5.6630    6.0855 C.ar      1 <0>        -0.1186
     16 C11        -0.2985   -5.8004    6.6973 C.ar      1 <0>        -0.0556
     17 C12        -1.4553   -5.5256    5.9905 C.ar      1 <0>        -0.1191
     18 C13        -1.3786   -5.1088    4.6749 C.ar      1 <0>        -0.0169
     19 Br1        -0.4025   -6.3642    8.4993 Br        1 <0>        -0.0588
     20 Cl2         2.6702   -1.4760    1.9002 Cl        1 <0>        -0.0782
     21 H1         -2.7014   -0.4626   -1.5402 H         1 <0>         0.0667
     22 H2         -1.7327   -1.2378   -2.8166 H         1 <0>         0.0615
     23 H3         -2.6598   -2.2372   -1.6721 H         1 <0>         0.0690
     24 H4          0.3344   -0.1624   -2.1351 H         1 <0>         0.1200
     25 H5          2.2780   -0.2240   -0.6275 H         1 <0>         0.1198
     26 H6          1.9726   -5.1443    4.2903 H         1 <0>         0.1447
     27 H7          1.8380   -5.8778    6.6368 H         1 <0>         0.1349
     28 H8         -2.4182   -5.6326    6.4678 H         1 <0>         0.1347
     29 H9         -2.2816   -4.8903    4.1242 H         1 <0>         0.1456
@<TRIPOS>BOND
     1    1    2 1
     2    1   21 1
     3    1   22 1
     4    1   23 1
     5    2    7 ar
     6    2    3 ar
     7    3    4 ar
     8    3   24 1
     9    4    5 ar
    10    4   25 1
    11    5    6 ar
    12    5   20 1
    13    6    7 ar
    14    6    9 1
    15    7    8 1
    16    9   10 1
    17   10   11 2
    18   10   12 2
    19   10   13 1
    20   13   18 ar
    21   13   14 ar
    22   14   15 ar
    23   14   26 1
    24   15   16 ar
    25   15   27 1
    26   16   17 ar
    27   16   19 1
    28   17   18 ar
    29   17   28 1
    30   18   29 1
@<TRIPOS>MOLECULE
ZINC40848057
   41    43     0     0     0
SMALL
USER_CHARGES

@<TRIPOS>ATOM
      1 C1         -0.0184    1.5028    0.0103 C.3       1 <0>        -0.1087
      2 C2          0.0021   -0.0041    0.0020 C.ar      1 <0>        -0.0764
      3 C3          0.0057   -0.6883   -1.2002 C.ar      1 <0>        -0.1435
      4 C4          0.0244   -2.0710   -1.2127 C.ar      1 <0>        -0.1005
      5 C5          0.0391   -2.7737   -0.0240 C.ar      1 <0>        -0.1246
      6 C6          0.0355   -2.0898    1.1856 C.ar      1 <0>        -0.0729
      7 C7          0.0228   -0.6999    1.1942 C.ar      1 <0>        -0.1141
      8 S1          0.0542   -2.9822    2.7048 S.3       1 <0>         0.0130
      9 C8          0.0744   -4.6721    2.2063 C.ar      1 <0>        -0.3065
     10 C9         -1.1120   -5.3616    2.0069 C.ar      1 <0>         0.1982
     11 N1         -1.1013   -6.6271    1.6341 N.ar      1 <0>        -0.4978
     12 C10         0.0241   -7.2864    1.4358 C.ar      1 <0>        -0.3792
     13 C11         1.2484   -6.6721    1.6129 C.ar      1 <0>        -0.2004
     14 C12         1.2873   -5.3373    1.9998 C.ar      1 <0>         0.3105
     15 O1          2.4722   -4.6975    2.1780 O.3       1 <0>        -0.6649
     16 S2         -0.0355   -8.9757    0.9384 S.o2      1 <0>         2.5876
     17 O2          1.1972   -9.5600    1.3361 O.2       1 <0>        -0.9408
     18 O3         -1.2920   -9.4815    1.3682 O.2       1 <0>        -0.9299
     19 C13        -0.0590   -8.9995   -0.8233 C.ar      1 <0>        -0.6500
     20 C14        -1.2644   -8.9655   -1.4990 C.ar      1 <0>        -0.0139
     21 C15        -1.2828   -8.9842   -2.8811 C.ar      1 <0>        -0.1444
     22 C16        -0.0957   -9.0365   -3.5875 C.ar      1 <0>        -0.0690
     23 C17         1.1098   -9.0697   -2.9118 C.ar      1 <0>        -0.1434
     24 C18         1.1283   -9.0466   -1.5297 C.ar      1 <0>        -0.0208
     25 C19        -2.4277   -4.6580    2.2189 C.3       1 <0>        -0.1057
     26 H1          1.0042    1.8801    0.0026 H         1 <0>         0.0670
     27 H2         -0.5455    1.8639   -0.8728 H         1 <0>         0.0625
     28 H3         -0.5286    1.8543    0.9071 H         1 <0>         0.0638
     29 H4         -0.0065   -0.1413   -2.1314 H         1 <0>         0.1152
     30 H5          0.0272   -2.6019   -2.1532 H         1 <0>         0.1157
     31 H6          0.0530   -3.8536   -0.0345 H         1 <0>         0.1186
     32 H7          0.0244   -0.1649    2.1325 H         1 <0>         0.1211
     33 H8          2.1642   -7.2206    1.4487 H         1 <0>         0.1314
     34 H9         -2.1919   -8.9246   -0.9471 H         1 <0>         0.1448
     35 H10        -2.2246   -8.9582   -3.4090 H         1 <0>         0.1314
     36 H11        -0.1101   -9.0518   -4.6673 H         1 <0>         0.1281
     37 H12         2.0372   -9.1109   -3.4636 H         1 <0>         0.1316
     38 H13         2.0702   -9.0688   -1.0019 H         1 <0>         0.1424
     39 H14        -2.7482   -4.1977    1.2843 H         1 <0>         0.0701
     40 H15        -3.1772   -5.3794    2.5444 H         1 <0>         0.0721
     41 H16        -2.3093   -3.8881    2.9813 H         1 <0>         0.0821
@<TRIPOS>BOND
     1    1    2 1
     2    1   26 1
     3    1   27 1
     4    1   28 1
     5    2    7 ar
     6    2    3 ar
     7    3    4 ar
     8    3   29 1
     9    4    5 ar
    10    4   30 1
    11    5    6 ar
    12    5   31 1
    13    6    7 ar
    14    6    8 1
    15    7   32 1
    16    8    9 1
    17    9   14 ar
    18    9   10 ar
    19   10   11 ar
    20   10   25 1
    21   11   12 ar
    22   12   16 1
    23   12   13 ar
    24   13   33 1
    25   13   14 ar
    26   14   15 1
    27   16   17 2
    28   16   18 2
    29   16   19 1
    30   19   24 ar
    31   19   20 ar
    32   20   21 ar
    33   20   34 1
    34   21   22 ar
    35   21   35 1
    36   22   23 ar
    37   22   36 1
    38   23   24 ar
    39   23   37 1
    40   24   38 1
    41   25   39 1
    42   25   40 1
    43   25   41 1
@<TRIPOS>MOLECULE
ZINC48529602
   26    27     0     0     0
SMALL
USER_CHARGES

@<TRIPOS>ATOM
      1 C1          2.1314    0.0174    4.0807 C.2       1 <0>        -0.2278
      2 C2          3.0223    0.7236    3.2612 C.2       1 <0>        -0.1589
      3 C3          3.2306   -0.0586    2.1419 C.2       1 <0>        -0.0158
      4 O1          2.4978   -1.1835    2.2834 O.3       1 <0>        -0.1461
      5 C4          1.8364   -1.1409    3.4470 C.2       1 <0>        -0.0348
      6 C5          4.0623    0.2621    1.0437 C.2       1 <0>         0.4020
      7 O2          4.6683    1.4675    0.9849 O.3       1 <0>        -0.6322
      8 C6          4.2572   -0.6693    0.0185 C.2       1 <0>        -0.4411
      9 C7          5.2037   -0.4013   -1.0221 C.1       1 <0>         0.3250
     10 N1          5.9547   -0.1887   -1.8475 N.1       1 <0>        -0.5317
     11 C8          3.4944   -1.9165    0.0093 C.2       1 <0>         0.4771
     12 O3          2.2898   -1.8923   -0.1687 O.2       1 <0>        -0.4258
     13 C9          4.1855   -3.2075    0.2161 C.ar      1 <0>        -0.1015
     14 C10         5.5773   -3.2495    0.3158 C.ar      1 <0>        -0.0508
     15 C11         6.2160   -4.4578    0.5093 C.ar      1 <0>        -0.0346
     16 C12         5.4788   -5.6267    0.6046 C.ar      1 <0>        -0.0941
     17 C13         4.0998   -5.5916    0.5067 C.ar      1 <0>        -0.0885
     18 C14         3.4483   -4.3890    0.3184 C.ar      1 <0>        -0.0723
     19 I1          1.3586   -4.3377    0.1791 I         1 <0>        -0.0007
     20 Cl1         7.9467   -4.5127    0.6329 Cl        1 <0>        -0.0660
     21 H1          1.7544    0.3362    5.0413 H         1 <0>         0.1444
     22 H2          3.4596    1.6899    3.4646 H         1 <0>         0.1510
     23 H3          1.1740   -1.9081    3.8198 H         1 <0>         0.1952
     24 H4          6.1530   -2.3388    0.2412 H         1 <0>         0.1501
     25 H5          5.9833   -6.5696    0.7556 H         1 <0>         0.1395
     26 H6          3.5309   -6.5065    0.5818 H         1 <0>         0.1386
@<TRIPOS>BOND
     1    1    5 2
     2    1    2 1
     3    1   21 1
     4    2    3 2
     5    2   22 1
     6    3    4 1
     7    3    6 1
     8    4    5 1
     9    5   23 1
    10    6    7 1
    11    6    8 2
    12    8    9 1
    13    8   11 1
    14    9   10 3
    15   11   12 2
    16   11   13 1
    17   13   18 ar
    18   13   14 ar
    19   14   15 ar
    20   14   24 1
    21   15   16 ar
    22   15   20 1
    23   16   17 ar
    24   16   25 1
    25   17   18 ar
    26   17   26 1
    27   18   19 1
@<TRIPOS>MOLECULE
ZINC00753398
   52    56     0     0     0
SMALL
USER_CHARGES
(2-hydroxy-5-nitro-phenyl)-dimethyl-BLAHone
@<TRIPOS>ATOM
      1 C1         -2.9490   -1.8644   -3.1014 C.3       1 <0>        -0.1454
      2 C2         -2.3036   -2.4862   -1.8631 C.3       1 <0>        -0.0593
      3 C3         -1.6858   -1.3958   -0.9866 C.3       1 <0>        -0.0934
      4 C4         -2.7403   -0.4676   -0.4461 C.2       1 <0>         0.0705
      5 C5         -4.0037   -0.9283   -0.2251 C.2       1 <0>        -0.2605
      6 C6         -5.0749   -0.0277    0.3398 C.3       1 <0>         0.2824
      7 H1         -6.0356   -0.2838   -0.1160 H         1 <0>         0.1005
      8 N1         -4.7684    1.3736    0.0636 N.pl3     1 <0>        -0.6925
      9 C7         -3.4536    1.8073    0.0433 C.ar      1 <0>         0.2712
     10 C8         -2.4163    0.8817   -0.1581 C.ar      1 <0>        -0.1837
     11 C9         -1.0383    1.3617   -0.0426 C.ar      1 <0>         0.0323
     12 C10         0.0735    0.5175   -0.0612 C.ar      1 <0>        -0.1383
     13 C11         1.3375    1.0374   -0.0829 C.ar      1 <0>        -0.1013
     14 C12         1.5489    2.4098   -0.0158 C.ar      1 <0>        -0.1456
     15 C13         0.4932    3.2644    0.0724 C.ar      1 <0>        -0.0859
     16 C14        -0.8173    2.7590    0.0801 C.ar      1 <0>        -0.1040
     17 C15        -1.9090    3.6359    0.2253 C.ar      1 <0>        -0.0457
     18 C16        -3.1797    3.1640    0.2199 C.ar      1 <0>        -0.1693
     19 C17        -5.1723   -0.2359    1.8291 C.ar      1 <0>        -0.2370
     20 C18        -4.1497   -0.8716    2.5068 C.ar      1 <0>         0.0128
     21 C19        -4.2386   -1.0629    3.8730 C.ar      1 <0>        -0.1817
     22 C20        -5.3507   -0.6192    4.5648 C.ar      1 <0>        -0.0109
     23 C21        -6.3757    0.0168    3.8920 C.ar      1 <0>        -0.2536
     24 C22        -6.2861    0.2156    2.5217 C.ar      1 <0>         0.3188
     25 N2         -3.1417   -1.7441    4.5965 N.pl3     1 <0>         0.0708
     26 O1         -2.1619   -2.1357    3.9881 O.2       1 <0>        -0.2266
     27 O2         -3.2189   -1.9133    5.8002 O.3       1 <0>        -0.2301
     28 C23        -4.3582   -2.2561   -0.5111 C.2       1 <0>         0.3950
     29 O3         -5.5044   -2.6203   -0.3281 O.2       1 <0>        -0.4685
     30 C24        -3.3551   -3.2400   -1.0448 C.3       1 <0>        -0.1487
     31 C25        -1.2080   -3.4655   -2.2995 C.3       1 <0>        -0.1411
     32 H2         -2.1923   -1.3304   -3.6761 H         1 <0>         0.0591
     33 H3         -3.3852   -2.6508   -3.7174 H         1 <0>         0.0568
     34 H4         -3.7296   -1.1687   -2.7937 H         1 <0>         0.0587
     35 H5         -0.9765   -0.8266   -1.5912 H         1 <0>         0.0915
     36 H6         -1.1634   -1.8715   -0.1536 H         1 <0>         0.0951
     37 H7         -5.4901    2.0093   -0.1081 H         1 <0>         0.4107
     38 H8         -0.0299   -0.5542   -0.0750 H         1 <0>         0.1352
     39 H9          2.1838    0.3695   -0.1490 H         1 <0>         0.1198
     40 H10         2.5550    2.7999   -0.0319 H         1 <0>         0.1181
     41 H11         0.6619    4.3296    0.1420 H         1 <0>         0.1217
     42 H12        -1.7294    4.6939    0.3447 H         1 <0>         0.1282
     43 H13        -4.0019    3.8517    0.3568 H         1 <0>         0.1278
     44 H14        -3.2801   -1.2190    1.9687 H         1 <0>         0.1224
     45 H15        -5.4178   -0.7699    5.6322 H         1 <0>         0.1230
     46 H16        -7.2442    0.3628    4.4327 H         1 <0>         0.1192
     47 H17        -3.8148   -3.9093   -1.6285 H         1 <0>         0.0832
     48 H18        -2.8709   -3.7532   -0.2128 H         1 <0>         0.0987
     49 H19        -0.7540   -3.9189   -1.4184 H         1 <0>         0.0598
     50 H20        -1.6448   -4.2443   -2.9246 H         1 <0>         0.0583
     51 H21        -0.4462   -2.9297   -2.8658 H         1 <0>         0.0593
     52 O4         -7.2907    0.8461    1.8583 O.3       1 <0>        -0.6775
@<TRIPOS>BOND
     1    1    2 1
     2    1   32 1
     3    1   33 1
     4    1   34 1
     5    2   30 1
     6    2    3 1
     7    2   31 1
     8    3    4 1
     9    3   35 1
    10    3   36 1
    11    4   10 1
    12    4    5 2
    13    5    6 1
    14    5   28 1
    15    6    7 1
    16    6    8 1
    17    6   19 1
    18    8    9 1
    19    8   37 1
    20    9   18 ar
    21    9   10 ar
    22   10   11 ar
    23   11   16 ar
    24   11   12 ar
    25   12   13 ar
    26   12   38 1
    27   13   14 ar
    28   13   39 1
    29   14   15 ar
    30   14   40 1
    31   15   16 ar
    32   15   41 1
    33   16   17 ar
    34   17   18 ar
    35   17   42 1
    36   18   43 1
    37   19   24 ar
    38   19   20 ar
    39   20   21 ar
    40   20   44 1
    41   21   22 ar
    42   21   25 1
    43   22   23 ar
    44   22   45 1
    45   23   24 ar
    46   23   46 1
    47   24   52 1
    48   25   26 2
    49   25   27 1
    50   28   29 2
    51   28   30 1
    52   30   47 1
    53   30   48 1
    54   31   49 1
    55   31   50 1
    56   31   51 1
@<TRIPOS>MOLECULE
ZINC19873014
   42    46     0     0     0
SMALL
USER_CHARGES

@<TRIPOS>ATOM
      1 C1          1.1712    1.5874   -0.2207 C.ar      1 <0>        -0.1413
      2 C2          2.4727    2.0366   -0.3154 C.ar      1 <0>        -0.0726
      3 C3          3.5506    1.1654   -0.3458 C.ar      1 <0>        -0.1357
      4 C4          3.2683   -0.2006   -0.2776 C.ar      1 <0>         0.1599
      5 C5          1.9455   -0.6407   -0.1803 C.ar      1 <0>        -0.1288
      6 C6          0.8774    0.2295   -0.1505 C.ar      1 <0>        -0.0422
      7 C7          1.9936   -2.1441   -0.1200 C.3       1 <0>        -0.0524
      8 C8          1.4552   -2.6268    1.2023 C.3       1 <0>        -0.1307
      9 C9          1.8204   -4.0336    1.4989 C.2       1 <0>         0.3149
     10 N1          1.8951   -5.0065    0.7323 N.2       1 <0>        -0.5565
     11 C10         1.8557   -5.3642   -0.5516 C.ar      1 <0>         0.2076
     12 C11         2.1253   -6.7319   -0.7910 C.ar      1 <0>        -0.0740
     13 C12         2.1606   -7.2457   -2.0623 C.ar      1 <0>        -0.0242
     14 C13         1.9296   -6.4136   -3.1468 C.ar      1 <0>        -0.0955
     15 C14         1.6476   -5.0853   -2.9353 C.ar      1 <0>        -0.0742
     16 C15         1.5856   -4.5414   -1.6451 C.ar      1 <0>        -0.1364
     17 S1          1.1441   -2.8542   -1.5281 S.3       1 <0>        -0.0204
     18 Cl1         2.4924   -8.9313   -2.3122 Cl        1 <0>        -0.0567
     19 C16         2.1414   -4.3166    2.9076 C.ar      1 <0>        -0.0649
     20 C17         1.9123   -3.3471    3.8887 C.ar      1 <0>        -0.0947
     21 C18         2.2148   -3.6192    5.2059 C.ar      1 <0>        -0.0954
     22 C19         2.7445   -4.8495    5.5583 C.ar      1 <0>        -0.0758
     23 C20         2.9741   -5.8145    4.5919 C.ar      1 <0>        -0.0981
     24 C21         2.6714   -5.5583    3.2715 C.ar      1 <0>        -0.0577
     25 Br1         3.1567   -5.2129    7.3677 Br        1 <0>        -0.0457
     26 C22         3.4814   -2.4539   -0.2061 C.2       1 <0>         0.5284
     27 O1          3.9868   -3.5564   -0.2004 O.2       1 <0>        -0.4689
     28 N2          4.1334   -1.2786   -0.2900 N.am      1 <0>        -0.6504
     29 H1          0.3644    2.3050   -0.1962 H         1 <0>         0.1326
     30 H2          2.6570    3.0995   -0.3679 H         1 <0>         0.1327
     31 H3          4.5654    1.5276   -0.4193 H         1 <0>         0.1398
     32 H4         -0.1397   -0.1259   -0.0758 H         1 <0>         0.1420
     33 H5          1.8465   -1.9884    1.9944 H         1 <0>         0.1111
     34 H6          0.3686   -2.5414    1.1908 H         1 <0>         0.1193
     35 H7          2.3083   -7.3875    0.0475 H         1 <0>         0.1427
     36 H8          1.9714   -6.8068   -4.1519 H         1 <0>         0.1448
     37 H9          1.4698   -4.4436   -3.7856 H         1 <0>         0.1391
     38 H10         1.4996   -2.3873    3.6152 H         1 <0>         0.1383
     39 H11         2.0386   -2.8712    5.9647 H         1 <0>         0.1380
     40 H12         3.3877   -6.7715    4.8738 H         1 <0>         0.1372
     41 H13         2.8472   -6.3132    2.5195 H         1 <0>         0.1438
     42 H14         5.0981   -1.1979   -0.3523 H         1 <0>         0.4210
@<TRIPOS>BOND
     1    1    6 ar
     2    1    2 ar
     3    1   29 1
     4    2    3 ar
     5    2   30 1
     6    3    4 ar
     7    3   31 1
     8    4   28 1
     9    4    5 ar
    10    5    6 ar
    11    5    7 1
    12    6   32 1
    13    7   17 1
    14    7   26 1
    15    7    8 1
    16    8    9 1
    17    8   33 1
    18    8   34 1
    19    9   10 2
    20    9   19 1
    21   10   11 1
    22   11   16 ar
    23   11   12 ar
    24   12   13 ar
    25   12   35 1
    26   13   14 ar
    27   13   18 1
    28   14   15 ar
    29   14   36 1
    30   15   16 ar
    31   15   37 1
    32   16   17 1
    33   19   24 ar
    34   19   20 ar
    35   20   21 ar
    36   20   38 1
    37   21   22 ar
    38   21   39 1
    39   22   23 ar
    40   22   25 1
    41   23   24 ar
    42   23   40 1
    43   24   41 1
    44   26   27 2
    45   26   28 am
    46   28   42 1
@<TRIPOS>MOLECULE
ZINC03881985
   80    84     0     0     0
SMALL
USER_CHARGES

@<TRIPOS>ATOM
      1 C1          0.4333    0.4753   -0.4672 C.3       1 <0>        -0.1392
      2 C2          0.4013   -1.0436   -0.3342 C.3       1 <0>        -0.0631
      3 C3          1.0639   -1.7053   -1.5423 C.3       1 <0>        -0.1040
      4 C4          2.5479   -1.3689   -1.6038 C.3       1 <0>        -0.0870
      5 C5          3.2733   -1.7772   -0.3214 C.3       1 <0>        -0.1130
      6 C6          3.2783   -3.2944   -0.1657 C.3       1 <0>        -0.0854
      7 C7          4.1189   -3.7197    1.0385 C.3       1 <0>        -0.0970
      8 C8          3.6257   -3.0849    2.3327 C.3       1 <0>         0.0217
      9 C9          3.2941   -1.6350    2.1523 C.2       1 <0>        -0.0330
     10 C10         3.5750   -0.7210    3.0448 C.2       1 <0>        -0.1962
     11 C11         4.2796   -0.9944    4.3402 C.3       1 <0>        -0.0710
     12 C12         4.1874   -2.4827    4.6808 C.3       1 <0>        -0.0532
     13 H1          3.1091   -2.6916    4.8593 H         1 <0>         0.0645
     14 C13         4.6319   -3.2995    3.4735 C.3       1 <0>        -0.0180
     15 C14         4.7642   -4.7794    3.7876 C.3       1 <0>        -0.1115
     16 C15         5.4848   -5.0611    5.0999 C.3       1 <0>        -0.1026
     17 C16         4.9383   -4.2770    6.2865 C.3       1 <0>        -0.0504
     18 H2          5.7398   -4.3764    7.0796 H         1 <0>         0.0468
     19 C17         4.9054   -2.7881    5.9802 C.3       1 <0>        -0.0323
     20 C18         4.2587   -1.9948    7.1237 C.3       1 <0>        -0.1123
     21 C19         2.8891   -2.5796    7.4609 C.3       1 <0>        -0.1518
     22 C20         3.1025   -3.9938    8.0036 C.3       1 <0>         0.1171
     23 H3          3.7807   -3.9566    8.8544 H         1 <0>         0.0482
     24 C21         3.7060   -4.8844    6.9108 C.3       1 <0>        -0.0348
     25 C22         2.6100   -5.2218    5.9038 C.3       1 <0>        -0.1390
     26 C23         4.1149   -6.2057    7.6044 C.3       1 <0>        -0.1455
     27 O1          1.8468   -4.5383    8.4139 O.3       1 <0>        -0.5634
     28 C24         6.3704   -2.2963    5.9437 C.3       1 <0>        -0.1568
     29 C25         5.9933   -2.7907    2.9680 C.3       1 <0>        -0.1411
     30 C26         2.5996   -1.1414    0.8934 C.3       1 <0>        -0.0205
     31 H4          2.7281   -0.0506    0.8406 H         1 <0>         0.0588
     32 C27         1.1188   -1.4821    0.9458 C.3       1 <0>        -0.0980
     33 C28         2.3216   -3.7963    2.7230 C.3       1 <0>        -0.1569
     34 C29         4.6926   -1.2708   -0.4174 C.2       1 <0>         0.4993
     35 O2          5.0555   -0.6579   -1.4069 O.co2     1 <0>        -0.7075
     36 O3          5.4756   -1.4748    0.4946 O.co2     1 <0>        -0.6706
     37 C30        -1.0606   -1.5074   -0.2588 C.3       1 <0>        -0.1396
     38 H5          1.4683    0.8149   -0.5061 H         1 <0>         0.0622
     39 H6         -0.0807    0.7708   -1.3818 H         1 <0>         0.0471
     40 H7         -0.0649    0.9257    0.3913 H         1 <0>         0.0469
     41 H8          0.9340   -2.7893   -1.4771 H         1 <0>         0.0525
     42 H9          0.5762   -1.3520   -2.4549 H         1 <0>         0.0472
     43 H10         3.0004   -1.9013   -2.4472 H         1 <0>         0.0492
     44 H11         2.6883   -0.3014   -1.7689 H         1 <0>         0.0615
     45 H12         2.2588   -3.6636   -0.0620 H         1 <0>         0.0434
     46 H13         3.7128   -3.7414   -1.0688 H         1 <0>         0.0405
     47 H14         4.0244   -4.8159    1.1383 H         1 <0>         0.0262
     48 H15         5.1618   -3.5188    0.8270 H         1 <0>         0.0973
     49 H16         3.2755    0.2959    2.8289 H         1 <0>         0.0861
     50 H17         5.3044   -0.6494    4.2731 H         1 <0>         0.0707
     51 H18         3.7775   -0.4206    5.1302 H         1 <0>         0.0485
     52 H19         3.8458   -5.3355    3.7413 H         1 <0>         0.0702
     53 H20         5.4009   -5.2208    2.9819 H         1 <0>         0.0461
     54 H21         5.4214   -6.1364    5.3065 H         1 <0>         0.0532
     55 H22         6.5548   -4.8405    4.9774 H         1 <0>         0.0580
     56 H23         4.9026   -2.0564    8.0013 H         1 <0>         0.0566
     57 H24         4.1550   -0.9547    6.8295 H         1 <0>         0.0704
     58 H25         2.4105   -1.9644    8.2271 H         1 <0>         0.0563
     59 H26         2.2598   -2.6005    6.5764 H         1 <0>         0.0776
     60 H27         2.9922   -5.9388    5.1773 H         1 <0>         0.0540
     61 H28         1.7568   -5.6540    6.4266 H         1 <0>         0.0589
     62 H29         2.2980   -4.3135    5.3883 H         1 <0>         0.0613
     63 H30         4.8596   -5.9975    8.3726 H         1 <0>         0.0462
     64 H31         3.2376   -6.6620    8.0629 H         1 <0>         0.0590
     65 H32         4.5356   -6.8885    6.8661 H         1 <0>         0.0540
     66 H33         1.4051   -4.0291    9.1072 H         1 <0>         0.3714
     67 H34         6.3975   -1.2602    5.6062 H         1 <0>         0.0596
     68 H35         6.8016   -2.3645    6.9424 H         1 <0>         0.0439
     69 H36         6.9452   -2.9173    5.2566 H         1 <0>         0.0677
     70 H37         5.9455   -1.7119    2.8194 H         1 <0>         0.0769
     71 H38         6.7637   -3.0224    3.7034 H         1 <0>         0.0334
     72 H39         6.2349   -3.2773    2.0230 H         1 <0>         0.0627
     73 H40         0.6559   -0.9943    1.8048 H         1 <0>         0.0503
     74 H41         0.9764   -2.5639    1.0351 H         1 <0>         0.0649
     75 H42         2.5360   -4.8343    2.9774 H         1 <0>         0.0547
     76 H43         1.8780   -3.2955    3.5835 H         1 <0>         0.0484
     77 H44         1.6252   -3.7639    1.8850 H         1 <0>         0.0561
     78 H45        -1.5845   -1.2065   -1.1660 H         1 <0>         0.0488
     79 H46        -1.0929   -2.5928   -0.1635 H         1 <0>         0.0498
     80 H47        -1.5420   -1.0522    0.6067 H         1 <0>         0.0488
@<TRIPOS>BOND
     1    1    2 1
     2    1   38 1
     3    1   39 1
     4    1   40 1
     5    2   32 1
     6    2    3 1
     7    2   37 1
     8    3    4 1
     9    3   41 1
    10    3   42 1
    11    4    5 1
    12    4   43 1
    13    4   44 1
    14    5   30 1
    15    5    6 1
    16    5   34 1
    17    6    7 1
    18    6   45 1
    19    6   46 1
    20    7    8 1
    21    7   47 1
    22    7   48 1
    23    8   14 1
    24    8    9 1
    25    8   33 1
    26    9   10 2
    27    9   30 1
    28   10   11 1
    29   10   49 1
    30   11   12 1
    31   11   50 1
    32   11   51 1
    33   12   13 1
    34   12   19 1
    35   12   14 1
    36   14   15 1
    37   14   29 1
    38   15   16 1
    39   15   52 1
    40   15   53 1
    41   16   17 1
    42   16   54 1
    43   16   55 1
    44   17   18 1
    45   17   24 1
    46   17   19 1
    47   19   20 1
    48   19   28 1
    49   20   21 1
    50   20   56 1
    51   20   57 1
    52   21   22 1
    53   21   58 1
    54   21   59 1
    55   22   23 1
    56   22   24 1
    57   22   27 1
    58   24   25 1
    59   24   26 1
    60   25   60 1
    61   25   61 1
    62   25   62 1
    63   26   63 1
    64   26   64 1
    65   26   65 1
    66   27   66 1
    67   28   67 1
    68   28   68 1
    69   28   69 1
    70   29   70 1
    71   29   71 1
    72   29   72 1
    73   30   31 1
    74   30   32 1
    75   32   73 1
    76   32   74 1
    77   33   75 1
    78   33   76 1
    79   33   77 1
    80   34   35 2
    81   34   36 1
    82   37   78 1
    83   37   79 1
    84   37   80 1
@<TRIPOS>MOLECULE
ZINC43465511
   81    85     0     0     0
SMALL
USER_CHARGES

@<TRIPOS>ATOM
      1 C1          0.1662    1.4942   -0.1834 C.3       1 <0>        -0.1585
      2 C2          0.1706   -0.0310   -0.1784 C.3       1 <0>        -0.0350
      3 C3          0.5956   -0.5048   -1.5792 C.3       1 <0>        -0.1059
      4 C4          1.9931    0.0231   -1.8859 C.3       1 <0>        -0.1485
      5 C5          3.0003   -0.5453   -0.9013 C.3       1 <0>         0.1172
      6 H1          3.9723   -0.0571   -1.0687 H         1 <0>         0.0430
      7 C6          2.6100   -0.3385    0.5621 C.3       1 <0>        -0.0290
      8 C7          1.1512   -0.5980    0.8455 C.3       1 <0>        -0.0430
      9 H2          1.0120   -1.7084    0.8116 H         1 <0>         0.0671
     10 C8          0.6993   -0.1688    2.2408 C.3       1 <0>         0.1101
     11 H3          0.5529    0.9016    2.3063 H         1 <0>         0.0595
     12 C9         -0.6299   -0.8945    2.5279 C.3       1 <0>        -0.1409
     13 C10        -1.7025   -0.4696    1.5335 C.3       1 <0>        -0.0240
     14 C11        -1.2248   -0.5938    0.0926 C.3       1 <0>        -0.0603
     15 H4         -1.1757   -1.6696   -0.1711 H         1 <0>         0.0630
     16 C12        -2.2607    0.0426   -0.8358 C.3       1 <0>        -0.0730
     17 C13        -3.6226   -0.5069   -0.5206 C.2       1 <0>        -0.1888
     18 C14        -3.9425   -1.0926    0.6044 C.2       1 <0>        -0.0621
     19 C15        -2.9611   -1.3329    1.7132 C.3       1 <0>         0.0089
     20 C16        -3.5840   -1.1066    3.0851 C.3       1 <0>        -0.1153
     21 C17        -4.9731   -1.7436    3.1825 C.3       1 <0>        -0.0774
     22 C18        -5.9012   -1.1652    2.1199 C.3       1 <0>        -0.1126
     23 C19        -5.3880   -1.5422    0.7330 C.3       1 <0>        -0.0227
     24 H5         -5.9806   -1.0027   -0.0217 H         1 <0>         0.0725
     25 C20        -5.5012   -3.0408    0.4932 C.3       1 <0>        -0.0965
     26 C21        -6.9419   -3.5226    0.6691 C.3       1 <0>        -0.0614
     27 C22        -7.4371   -3.1623    2.0683 C.3       1 <0>        -0.1005
     28 C23        -7.3301   -1.6659    2.3175 C.3       1 <0>        -0.0946
     29 C24        -7.8453   -2.9039   -0.3955 C.3       1 <0>        -0.1413
     30 C25        -6.9707   -5.0507    0.5136 C.3       1 <0>        -0.1399
     31 C26        -5.9263    0.3432    2.2348 C.2       1 <0>         0.5099
     32 O1         -5.2605    0.9005    3.0907 O.co2     1 <0>        -0.6883
     33 O2         -6.6124    1.0013    1.4715 O.co2     1 <0>        -0.7010
     34 C27        -2.5295   -2.8035    1.6394 C.3       1 <0>        -0.1513
     35 C28        -2.1023    0.9827    1.8367 C.3       1 <0>        -0.1521
     36 O3          1.6275   -0.5717    3.2496 O.3       1 <0>        -0.5639
     37 C29         3.4587   -1.3730    1.3486 C.3       1 <0>        -0.1410
     38 C30         3.0622    1.0492    1.0207 C.3       1 <0>        -0.1455
     39 O4          3.1690   -1.9477   -1.1453 O.3       1 <0>        -0.5620
     40 H6          1.1142    1.8590   -0.5787 H         1 <0>         0.0570
     41 H7         -0.6507    1.8532   -0.8094 H         1 <0>         0.0609
     42 H8          0.0319    1.8605    0.8344 H         1 <0>         0.0647
     43 H9          0.5961   -1.5934   -1.6001 H         1 <0>         0.0662
     44 H10        -0.1119   -0.1237   -2.3144 H         1 <0>         0.0650
     45 H11         2.2699   -0.3071   -2.9009 H         1 <0>         0.0545
     46 H12         2.0210    1.1083   -1.8872 H         1 <0>         0.0752
     47 H13        -0.4168   -1.9598    2.4793 H         1 <0>         0.0706
     48 H14        -0.9460   -0.6401    3.5422 H         1 <0>         0.0634
     49 H15        -2.2853    1.1228   -0.7568 H         1 <0>         0.0743
     50 H16        -2.0171   -0.2213   -1.8732 H         1 <0>         0.0552
     51 H17        -4.3948   -0.4144   -1.2725 H         1 <0>         0.0937
     52 H18        -2.9411   -1.6042    3.8352 H         1 <0>         0.0253
     53 H19        -3.6451   -0.0667    3.3719 H         1 <0>         0.1217
     54 H20        -4.8979   -2.8225    3.0668 H         1 <0>         0.0366
     55 H21        -5.3883   -1.5281    4.1727 H         1 <0>         0.0451
     56 H22        -5.1660   -3.2791   -0.5187 H         1 <0>         0.0497
     57 H23        -4.8831   -3.5906    1.2059 H         1 <0>         0.0631
     58 H24        -8.4817   -3.4730    2.1695 H         1 <0>         0.0484
     59 H25        -6.8449   -3.7019    2.8121 H         1 <0>         0.0539
     60 H26        -7.6387   -1.4500    3.3467 H         1 <0>         0.0457
     61 H27        -7.9976   -1.1224    1.6466 H         1 <0>         0.0649
     62 H28        -7.4926   -3.1947   -1.3850 H         1 <0>         0.0469
     63 H29        -8.8668   -3.2575   -0.2555 H         1 <0>         0.0467
     64 H30        -7.8212   -1.8178   -0.3060 H         1 <0>         0.0665
     65 H31        -6.3325   -5.5051    1.2715 H         1 <0>         0.0496
     66 H32        -7.9926   -5.4093    0.6367 H         1 <0>         0.0491
     67 H33        -6.6073   -5.3220   -0.4776 H         1 <0>         0.0492
     68 H34        -1.7301   -2.9840    2.3581 H         1 <0>         0.0542
     69 H35        -3.3799   -3.4439    1.8734 H         1 <0>         0.0579
     70 H36        -2.1719   -3.0272    0.6344 H         1 <0>         0.0475
     71 H37        -1.2193    1.6200    1.7898 H         1 <0>         0.0449
     72 H38        -2.8330    1.3195    1.1014 H         1 <0>         0.0636
     73 H39        -2.5383    1.0388    2.8342 H         1 <0>         0.0698
     74 H40         1.3705   -0.3149    4.1457 H         1 <0>         0.3702
     75 H41         4.5177   -1.1765    1.1813 H         1 <0>         0.0363
     76 H42         3.2376   -1.2905    2.4128 H         1 <0>         0.0795
     77 H43         3.2168   -2.3785    1.0042 H         1 <0>         0.0574
     78 H44         2.5378    1.8112    0.4442 H         1 <0>         0.0564
     79 H45         2.8349    1.1740    2.0794 H         1 <0>         0.0685
     80 H46         4.1363    1.1511    0.8653 H         1 <0>         0.0480
     81 H47         3.4894   -2.1567   -2.0334 H         1 <0>         0.3675
@<TRIPOS>BOND
     1    1    2 1
     2    1   40 1
     3    1   41 1
     4    1   42 1
     5    2    8 1
     6    2   14 1
     7    2    3 1
     8    3    4 1
     9    3   43 1
    10    3   44 1
    11    4    5 1
    12    4   45 1
    13    4   46 1
    14    5    6 1
    15    5    7 1
    16    5   39 1
    17    7    8 1
    18    7   37 1
    19    7   38 1
    20    8    9 1
    21    8   10 1
    22   10   11 1
    23   10   12 1
    24   10   36 1
    25   12   13 1
    26   12   47 1
    27   12   48 1
    28   13   19 1
    29   13   14 1
    30   13   35 1
    31   14   15 1
    32   14   16 1
    33   16   17 1
    34   16   49 1
    35   16   50 1
    36   17   18 2
    37   17   51 1
    38   18   23 1
    39   18   19 1
    40   19   20 1
    41   19   34 1
    42   20   21 1
    43   20   52 1
    44   20   53 1
    45   21   22 1
    46   21   54 1
    47   21   55 1
    48   22   28 1
    49   22   23 1
    50   22   31 1
    51   23   24 1
    52   23   25 1
    53   25   26 1
    54   25   56 1
    55   25   57 1
    56   26   27 1
    57   26   29 1
    58   26   30 1
    59   27   28 1
    60   27   58 1
    61   27   59 1
    62   28   60 1
    63   28   61 1
    64   29   62 1
    65   29   63 1
    66   29   64 1
    67   30   65 1
    68   30   66 1
    69   30   67 1
    70   31   32 2
    71   31   33 1
    72   34   68 1
    73   34   69 1
    74   34   70 1
    75   35   71 1
    76   35   72 1
    77   35   73 1
    78   36   74 1
    79   37   75 1
    80   37   76 1
    81   37   77 1
    82   38   78 1
    83   38   79 1
    84   38   80 1
    85   39   81 1
@<TRIPOS>MOLECULE
ZINC43743007
   80    84     0     0     0
SMALL
USER_CHARGES

@<TRIPOS>ATOM
      1 C1          0.0613    1.2088    0.2877 C.3       1 <0>        -0.1395
      2 C2          0.1365   -0.2526    0.1648 C.3       1 <0>        -0.0999
      3 H1         -0.8438   -0.7134    0.1750 H         1 <0>         0.0624
      4 C3          0.7707   -0.5967   -1.1981 C.3       1 <0>        -0.1137
      5 C4          0.6923   -2.1272   -1.3234 C.3       1 <0>        -0.0948
      6 C5          1.5564   -2.8647   -0.2764 C.3       1 <0>        -0.1059
      7 C6          3.0538   -2.8078   -0.6210 C.3       1 <0>        -0.0990
      8 C7          3.8756   -3.4604    0.3814 C.3       1 <0>        -0.0857
      9 C8          3.7429   -2.7359    1.7252 C.3       1 <0>         0.0157
     10 C9          2.3586   -2.8003    2.1228 C.2       1 <0>        -0.0616
     11 C10         1.9249   -3.3932    3.2288 C.2       1 <0>        -0.1528
     12 C11         2.8191   -3.9720    4.1577 C.3       1 <0>        -0.0791
     13 C12         4.1969   -3.3434    4.2252 C.3       1 <0>        -0.0553
     14 H2          4.8086   -4.1508    4.6896 H         1 <0>         0.0523
     15 C13         4.6888   -3.2876    2.7753 C.3       1 <0>        -0.0262
     16 C14         6.0662   -2.5483    2.8265 C.3       1 <0>        -0.1085
     17 C15         6.1259   -1.3324    3.5976 C.3       1 <0>        -0.1127
     18 C16         5.5228   -1.4511    5.0064 C.3       1 <0>        -0.0331
     19 H3          6.3187   -2.0046    5.5260 H         1 <0>         0.0489
     20 C17         4.2698   -2.1100    5.0821 C.3       1 <0>        -0.0081
     21 C18         3.0649   -1.2547    4.6745 C.3       1 <0>        -0.0867
     22 C19         3.0168    0.0372    5.5660 C.3       1 <0>        -0.1735
     23 C20         4.3933    0.7644    5.3059 C.3       1 <0>         0.1137
     24 H4          4.4058    1.6792    5.9807 H         1 <0>         0.0127
     25 C21         5.6342   -0.0690    5.6825 C.3       1 <0>        -0.0327
     26 C22         5.7262   -0.2077    7.1354 C.3       1 <0>        -0.1498
     27 C23         6.7859    0.7174    5.2014 C.3       1 <0>        -0.1431
     28 O1          4.3697    1.2721    3.9882 O.3       1 <0>        -0.5540
     29 C24         3.9961   -2.6638    6.4576 C.3       1 <0>        -0.1591
     30 C25         5.1009   -4.7771    2.4031 C.3       1 <0>        -0.1512
     31 C26         1.3010   -2.2984    1.1642 C.3       1 <0>        -0.0419
     32 H5          0.3116   -2.8586    1.4022 H         1 <0>         0.0777
     33 C27         1.0305   -0.8599    1.3223 C.3       1 <0>        -0.0498
     34 H6          1.8864   -0.2484    1.3766 H         1 <0>         0.0655
     35 C28         0.2127   -0.6018    2.5944 C.3       1 <0>        -0.1547
     36 C29         4.1478   -1.2853    1.4023 C.3       1 <0>        -0.1540
     37 C30         1.1020   -4.3088   -0.3275 C.2       1 <0>         0.5010
     38 O2          1.1974   -4.9416   -1.3653 O.co2     1 <0>        -0.7061
     39 O3          0.6408   -4.8385    0.6691 O.co2     1 <0>        -0.6873
     40 H7          1.0678    1.6270    0.2727 H         1 <0>         0.0511
     41 H8         -0.5130    1.6144   -0.5452 H         1 <0>         0.0475
     42 H9         -0.4266    1.4698    1.2267 H         1 <0>         0.0509
     43 H10         0.3059   -0.1010   -2.0190 H         1 <0>         0.0594
     44 H11         1.8051   -0.2815   -1.1104 H         1 <0>         0.0523
     45 H12        -0.3446   -2.4722   -1.2900 H         1 <0>         0.0530
     46 H13         1.1170   -2.4454   -2.3335 H         1 <0>         0.0485
     47 H14         3.1471   -3.3777   -1.5957 H         1 <0>         0.0516
     48 H15         3.2810   -1.7703   -0.8372 H         1 <0>         0.0547
     49 H16         3.5936   -4.5083    0.4741 H         1 <0>         0.0679
     50 H17         4.9690   -3.4012    0.0526 H         1 <0>         0.0429
     51 H18         0.8106   -3.3483    3.4150 H         1 <0>         0.1022
     52 H19         2.3492   -4.0086    5.1542 H         1 <0>         0.0486
     53 H20         2.9004   -5.0439    3.9643 H         1 <0>         0.0570
     54 H21         6.7593   -3.2310    3.2003 H         1 <0>         0.0406
     55 H22         6.4207   -2.4084    1.7585 H         1 <0>         0.0537
     56 H23         7.2493   -1.0726    3.6509 H         1 <0>         0.0399
     57 H24         5.7178   -0.4537    3.0417 H         1 <0>         0.0846
     58 H25         3.0939   -0.9616    3.7078 H         1 <0>         0.0913
     59 H26         2.1399   -1.7918    4.9547 H         1 <0>         0.0620
     60 H27         2.1843    0.7213    5.3683 H         1 <0>         0.0677
     61 H28         2.9751   -0.2629    6.6398 H         1 <0>         0.0589
     62 H29         6.5121   -0.9212    7.3832 H         1 <0>         0.0617
     63 H30         5.9611    0.7600    7.5787 H         1 <0>         0.0526
     64 H31         4.7740   -0.5653    7.5273 H         1 <0>         0.0667
     65 H32         6.6912    0.8809    4.1279 H         1 <0>         0.0744
     66 H33         6.8094    1.6787    5.7147 H         1 <0>         0.0487
     67 H34         7.7081    0.1736    5.4062 H         1 <0>         0.0483
     68 H35         3.6586    1.9065    3.8238 H         1 <0>         0.3767
     69 H36         4.8237   -3.3041    6.7627 H         1 <0>         0.0496
     70 H37         3.8921   -1.8420    7.1660 H         1 <0>         0.0573
     71 H38         3.0746   -3.2456    6.4382 H         1 <0>         0.0645
     72 H39         5.5971   -4.7850    1.4326 H         1 <0>         0.0543
     73 H40         5.7801   -5.1664    3.1616 H         1 <0>         0.0436
     74 H41         4.2083   -5.4011    2.3599 H         1 <0>         0.0582
     75 H42        -0.7521   -1.1026    2.5140 H         1 <0>         0.0468
     76 H43         0.7525   -0.9896    3.4583 H         1 <0>         0.0574
     77 H44         0.0567    0.4702    2.7147 H         1 <0>         0.0460
     78 H45         3.4747   -0.8797    0.6470 H         1 <0>         0.0593
     79 H46         4.0852   -0.6806    2.3071 H         1 <0>         0.0715
     80 H47         5.1700   -1.2690    1.0244 H         1 <0>         0.0463
@<TRIPOS>BOND
     1    1    2 1
     2    1   40 1
     3    1   41 1
     4    1   42 1
     5    2    3 1
     6    2   33 1
     7    2    4 1
     8    4    5 1
     9    4   43 1
    10    4   44 1
    11    5    6 1
    12    5   45 1
    13    5   46 1
    14    6   31 1
    15    6    7 1
    16    6   37 1
    17    7    8 1
    18    7   47 1
    19    7   48 1
    20    8    9 1
    21    8   49 1
    22    8   50 1
    23    9   15 1
    24    9   10 1
    25    9   36 1
    26   10   11 2
    27   10   31 1
    28   11   12 1
    29   11   51 1
    30   12   13 1
    31   12   52 1
    32   12   53 1
    33   13   14 1
    34   13   20 1
    35   13   15 1
    36   15   16 1
    37   15   30 1
    38   16   17 1
    39   16   54 1
    40   16   55 1
    41   17   18 1
    42   17   56 1
    43   17   57 1
    44   18   19 1
    45   18   25 1
    46   18   20 1
    47   20   21 1
    48   20   29 1
    49   21   22 1
    50   21   58 1
    51   21   59 1
    52   22   23 1
    53   22   60 1
    54   22   61 1
    55   23   24 1
    56   23   25 1
    57   23   28 1
    58   25   26 1
    59   25   27 1
    60   26   62 1
    61   26   63 1
    62   26   64 1
    63   27   65 1
    64   27   66 1
    65   27   67 1
    66   28   68 1
    67   29   69 1
    68   29   70 1
    69   29   71 1
    70   30   72 1
    71   30   73 1
    72   30   74 1
    73   31   32 1
    74   31   33 1
    75   33   34 1
    76   33   35 1
    77   35   75 1
    78   35   76 1
    79   35   77 1
    80   36   78 1
    81   36   79 1
    82   36   80 1
    83   37   38 2
    84   37   39 1
@<TRIPOS>MOLECULE
ZINC08658627
   59    63     0     0     0
SMALL
USER_CHARGES
2-(1,3-dioxo-2,4-diazaspiro[4.6]undec-2-yl)-N-[4-(6-methylbenzothiazol-2-yl)phenyl]-acetamide
@<TRIPOS>ATOM
      1 C1          3.5891   -0.9160   -0.0307 C.3       1 <0>        -0.1150
      2 C2          2.6999    0.2827    0.1779 C.ar      1 <0>        -0.0575
      3 C3          3.1076    1.3230    1.0015 C.ar      1 <0>        -0.1119
      4 C4          2.3280    2.4175    1.2086 C.ar      1 <0>        -0.0543
      5 C5          1.0623    2.5349    0.5858 C.ar      1 <0>         0.0725
      6 C6          0.6748    1.4585   -0.2470 C.ar      1 <0>        -0.1346
      7 C7          1.4702    0.3573   -0.4494 C.ar      1 <0>        -0.0715
      8 S1         -0.9247    1.9788   -0.8186 S.3       1 <0>        -0.0084
      9 C8         -0.9775    3.5383    0.0532 C.2       1 <0>         0.2060
     10 N1          0.1738    3.5424    0.6895 N.2       1 <0>        -0.4977
     11 C9         -2.0451    4.5599    0.0617 C.ar      1 <0>        -0.0409
     12 C10        -3.2056    4.3654   -0.6901 C.ar      1 <0>        -0.0635
     13 C11        -4.2014    5.3173   -0.6759 C.ar      1 <0>        -0.1421
     14 C12        -4.0472    6.4757    0.0777 C.ar      1 <0>         0.1716
     15 C13        -2.8903    6.6751    0.8228 C.ar      1 <0>        -0.1224
     16 C14        -1.8931    5.7245    0.8170 C.ar      1 <0>        -0.0428
     17 N2         -5.0564    7.4414    0.0857 N.am      1 <0>        -0.6689
     18 C15        -4.7389    8.7471    0.1906 C.2       1 <0>         0.5023
     19 O1         -3.5759    9.0910    0.1815 O.2       1 <0>        -0.4997
     20 C16        -5.8290    9.7796    0.3190 C.3       1 <0>         0.1008
     21 N3         -5.2297   11.1129    0.4168 N.am      1 <0>        -0.5628
     22 C17        -4.9580   11.8993   -0.6421 C.2       1 <0>         0.5346
     23 O2         -5.1538   11.6447   -1.8111 O.2       1 <0>        -0.4570
     24 C18        -4.3554   13.1711   -0.0702 C.3       1 <0>         0.1410
     25 C19        -5.3385   14.3299   -0.3506 C.3       1 <0>        -0.1136
     26 C20        -5.1000   15.4210    0.6556 C.3       1 <0>        -0.1202
     27 C21        -4.1285   16.5017    0.1414 C.3       1 <0>        -0.1198
     28 C22        -2.9247   15.9110   -0.6167 C.3       1 <0>        -0.1254
     29 C23        -2.3732   14.6821    0.0548 C.3       1 <0>        -0.1089
     30 C24        -3.0211   13.4420   -0.5900 C.3       1 <0>        -0.1228
     31 N4         -4.3568   12.9210    1.3856 N.am      1 <0>        -0.7154
     32 C25        -4.8903   11.7011    1.5688 C.2       1 <0>         0.7088
     33 O3         -5.0440   11.1882    2.6599 O.2       1 <0>        -0.5391
     34 H1          3.3652   -1.6702    0.7236 H         1 <0>         0.0776
     35 H2          3.4126   -1.3310   -1.0231 H         1 <0>         0.0714
     36 H3          4.6327   -0.6137    0.0563 H         1 <0>         0.0734
     37 H4          4.0688    1.2616    1.4901 H         1 <0>         0.1354
     38 H5          2.6790    3.2074    1.8561 H         1 <0>         0.1345
     39 H6          1.1378   -0.4436   -1.0931 H         1 <0>         0.1347
     40 H7         -3.3243    3.4678   -1.2788 H         1 <0>         0.1343
     41 H8         -5.1009    5.1658   -1.2541 H         1 <0>         0.1385
     42 H9         -2.7734    7.5759    1.4070 H         1 <0>         0.1427
     43 H10        -0.9946    5.8801    1.3957 H         1 <0>         0.1410
     44 H11        -5.9857    7.1724    0.0159 H         1 <0>         0.4168
     45 H12        -6.4763    9.7355   -0.5568 H         1 <0>         0.1314
     46 H13        -6.4161    9.5786    1.2152 H         1 <0>         0.1356
     47 H14        -5.1704   14.7166   -1.3557 H         1 <0>         0.0924
     48 H15        -6.3633   13.9691   -0.2623 H         1 <0>         0.0728
     49 H16        -4.6871   14.9794    1.5626 H         1 <0>         0.0640
     50 H17        -6.0531   15.8910    0.8978 H         1 <0>         0.0711
     51 H18        -3.7608   17.0769    0.9911 H         1 <0>         0.0637
     52 H19        -4.6709   17.1705   -0.5269 H         1 <0>         0.0638
     53 H20        -2.1393   16.6646   -0.6746 H         1 <0>         0.0655
     54 H21        -3.2389   15.6503   -1.6274 H         1 <0>         0.0656
     55 H22        -2.6103   14.7082    1.1184 H         1 <0>         0.0662
     56 H23        -1.2921   14.6419   -0.0786 H         1 <0>         0.0759
     57 H24        -2.3872   12.5755   -0.4016 H         1 <0>         0.0766
     58 H25        -3.0881   13.6012   -1.6662 H         1 <0>         0.0935
     59 H26        -4.0377   13.5226    2.0763 H         1 <0>         0.4406
@<TRIPOS>BOND
     1    1    2 1
     2    1   34 1
     3    1   35 1
     4    1   36 1
     5    2    7 ar
     6    2    3 ar
     7    3    4 ar
     8    3   37 1
     9    4    5 ar
    10    4   38 1
    11    5   10 1
    12    5    6 ar
    13    6    7 ar
    14    6    8 1
    15    7   39 1
    16    8    9 1
    17    9   10 2
    18    9   11 1
    19   11   16 ar
    20   11   12 ar
    21   12   13 ar
    22   12   40 1
    23   13   14 ar
    24   13   41 1
    25   14   15 ar
    26   14   17 1
    27   15   16 ar
    28   15   42 1
    29   16   43 1
    30   17   18 am
    31   17   44 1
    32   18   19 2
    33   18   20 1
    34   20   21 1
    35   20   45 1
    36   20   46 1
    37   21   32 am
    38   21   22 am
    39   22   23 2
    40   22   24 1
    41   24   30 1
    42   24   25 1
    43   24   31 1
    44   25   26 1
    45   25   47 1
    46   25   48 1
    47   26   27 1
    48   26   49 1
    49   26   50 1
    50   27   28 1
    51   27   51 1
    52   27   52 1
    53   28   29 1
    54   28   53 1
    55   28   54 1
    56   29   30 1
    57   29   55 1
    58   29   56 1
    59   30   57 1
    60   30   58 1
    61   31   32 am
    62   31   59 1
    63   32   33 2
@<TRIPOS>MOLECULE
ZINC14550868
   59    63     0     0     0
SMALL
USER_CHARGES
(3aR,4R,9bS)-N-(2,6-dimethylphenyl)-4-(4-nitrophenyl)-3a,4,5,9b-tetrahydro-3H-cyclopenta[c]quinoline-8-sulfonamide
@<TRIPOS>ATOM
      1 C1          4.4731   -1.1753   -0.3465 C.3       1 <0>        -0.1247
      2 C2          5.8738   -0.6893   -0.0765 C.ar      1 <0>        -0.0680
      3 C3          6.8979   -1.0154   -0.9438 C.ar      1 <0>        -0.1239
      4 C4          8.1845   -0.5746   -0.6938 C.ar      1 <0>        -0.0991
      5 C5          8.4494    0.1983    0.4220 C.ar      1 <0>        -0.1216
      6 C6          7.4291    0.5324    1.2905 C.ar      1 <0>        -0.0563
      7 C7          6.1354    0.0913    1.0424 C.ar      1 <0>         0.1160
      8 N1          5.1012    0.4270    1.9190 N.pl3     1 <0>        -1.0593
      9 S1          4.4667    1.9566    1.9040 S.o2      1 <0>         2.6864
     10 O1          5.5690    2.8534    1.8910 O.2       1 <0>        -0.9431
     11 O2          3.4678    1.9919    2.9139 O.2       1 <0>        -0.9564
     12 C8          3.6339    2.1601    0.3646 C.ar      1 <0>        -0.7139
     13 C9          4.2988    2.7250   -0.7086 C.ar      1 <0>         0.0265
     14 C10         3.6439    2.8813   -1.9139 C.ar      1 <0>        -0.2009
     15 C11         2.3219    2.4716   -2.0444 C.ar      1 <0>         0.2636
     16 C12         1.6523    1.9095   -0.9724 C.ar      1 <0>        -0.1562
     17 C13         2.3209    1.7555    0.2350 C.ar      1 <0>         0.0248
     18 C14         0.2203    1.4530   -1.0508 C.3       1 <0>        -0.0141
     19 H1          0.1416    0.3807   -0.8723 H         1 <0>         0.0907
     20 C15        -0.5674    2.2426   -0.0139 C.2       1 <0>        -0.1627
     21 C16        -1.1701    3.2652   -0.5937 C.2       1 <0>        -0.1580
     22 C17        -0.8483    3.3054   -2.0769 C.3       1 <0>        -0.0931
     23 C18        -0.4465    1.8430   -2.3825 C.3       1 <0>        -0.1008
     24 H2         -1.3229    1.2234   -2.5726 H         1 <0>         0.1030
     25 C19         0.5063    1.7901   -3.5488 C.3       1 <0>         0.1982
     26 H3          0.0047    2.1467   -4.4485 H         1 <0>         0.1133
     27 N2          1.6775    2.6308   -3.2764 N.pl3     1 <0>        -0.7362
     28 C20         0.9485    0.3639   -3.7524 C.ar      1 <0>        -0.0509
     29 C21         1.9464   -0.1703   -2.9589 C.ar      1 <0>        -0.1172
     30 C22         2.3484   -1.4802   -3.1421 C.ar      1 <0>        -0.0559
     31 C23         1.7599   -2.2525   -4.1261 C.ar      1 <0>        -0.0420
     32 C24         0.7659   -1.7166   -4.9233 C.ar      1 <0>        -0.0526
     33 C25         0.3600   -0.4085   -4.7363 C.ar      1 <0>        -0.1086
     34 N3          2.1939   -3.6535   -4.3257 N.pl3     1 <0>         0.0262
     35 O3          1.6751   -4.3341   -5.1923 O.2       1 <0>        -0.1573
     36 O4          3.0697   -4.1257   -3.6232 O.3       1 <0>        -0.1565
     37 C26         7.7186    1.3751    2.5059 C.3       1 <0>        -0.1320
     38 H4          3.9746   -0.4865   -1.0285 H         1 <0>         0.0694
     39 H5          4.5131   -2.1671   -0.7967 H         1 <0>         0.0749
     40 H6          3.9184   -1.2237    0.5906 H         1 <0>         0.0699
     41 H7          6.6944   -1.6188   -1.8161 H         1 <0>         0.1267
     42 H8          8.9842   -0.8342   -1.3716 H         1 <0>         0.1264
     43 H9          9.4555    0.5406    0.6145 H         1 <0>         0.1284
     44 H10         4.7545   -0.2358    2.5366 H         1 <0>         0.4237
     45 H11         5.3259    3.0421   -0.6044 H         1 <0>         0.1419
     46 H12         4.1584    3.3218   -2.7550 H         1 <0>         0.1341
     47 H13         1.8097    1.3156    1.0786 H         1 <0>         0.1378
     48 H14        -0.6293    1.9920    1.0348 H         1 <0>         0.1338
     49 H15        -1.7957    3.9799   -0.0797 H         1 <0>         0.1289
     50 H16        -0.0173    3.9829   -2.2732 H         1 <0>         0.0843
     51 H17        -1.7248    3.5941   -2.6570 H         1 <0>         0.0751
     52 H18         1.9947    3.2751   -3.9284 H         1 <0>         0.4148
     53 H19         2.4092    0.4345   -2.1931 H         1 <0>         0.1582
     54 H20         3.1247   -1.8990   -2.5190 H         1 <0>         0.1533
     55 H21         0.3062   -2.3200   -5.6920 H         1 <0>         0.1558
     56 H22        -0.4166    0.0103   -5.3592 H         1 <0>         0.1494
     57 H23         8.0998    0.7403    3.3057 H         1 <0>         0.0685
     58 H24         8.4634    2.1305    2.2553 H         1 <0>         0.0730
     59 H25         6.8020    1.8641    2.8358 H         1 <0>         0.0847
@<TRIPOS>BOND
     1    1    2 1
     2    1   38 1
     3    1   39 1
     4    1   40 1
     5    2    7 ar
     6    2    3 ar
     7    3    4 ar
     8    3   41 1
     9    4    5 ar
    10    4   42 1
    11    5    6 ar
    12    5   43 1
    13    6    7 ar
    14    6   37 1
    15    7    8 1
    16    8    9 1
    17    8   44 1
    18    9   10 2
    19    9   11 2
    20    9   12 1
    21   12   17 ar
    22   12   13 ar
    23   13   14 ar
    24   13   45 1
    25   14   15 ar
    26   14   46 1
    27   15   27 1
    28   15   16 ar
    29   16   17 ar
    30   16   18 1
    31   17   47 1
    32   18   19 1
    33   18   23 1
    34   18   20 1
    35   20   21 2
    36   20   48 1
    37   21   22 1
    38   21   49 1
    39   22   23 1
    40   22   50 1
    41   22   51 1
    42   23   24 1
    43   23   25 1
    44   25   26 1
    45   25   27 1
    46   25   28 1
    47   27   52 1
    48   28   33 ar
    49   28   29 ar
    50   29   30 ar
    51   29   53 1
    52   30   31 ar
    53   30   54 1
    54   31   32 ar
    55   31   34 1
    56   32   33 ar
    57   32   55 1
    58   33   56 1
    59   34   35 2
    60   34   36 1
    61   37   57 1
    62   37   58 1
    63   37   59 1
@<TRIPOS>MOLECULE
ZINC22508133
   69    72     0     0     0
SMALL
USER_CHARGES
2-[(1,5-dimethyl-3-oxo-2-phenyl-pyrazol-4-yl)amino]-N-(13-thia-15-azabicyclo[10.3.0]pentadeca-1(12),14-dien-14-yl)acetamide
@<TRIPOS>ATOM
      1 C1         -6.5109    2.9480   11.3022 C.3       1 <0>        -0.0851
      2 C2         -5.1695    3.1166   11.9680 C.2       1 <0>         0.0973
      3 C3         -3.9850    3.2548   11.3356 C.2       1 <0>        -0.0074
      4 C4         -2.9740    3.3926   12.3213 C.2       1 <0>         0.5332
      5 O1         -1.7832    3.5406   12.1130 O.2       1 <0>        -0.5405
      6 N1         -3.5681    3.3297   13.5301 N.am      1 <0>        -0.3572
      7 N2         -4.9426    3.1539   13.3227 N.pl3     1 <0>        -0.4036
      8 C5         -5.9617    3.0361   14.3686 C.3       1 <0>         0.1030
      9 C6         -2.9271    3.4237   14.7693 C.ar      1 <0>         0.1497
     10 C7         -3.4329    4.2642   15.7526 C.ar      1 <0>        -0.1309
     11 C8         -2.8009    4.3500   16.9776 C.ar      1 <0>        -0.1024
     12 C9         -1.6589    3.6092   17.2215 C.ar      1 <0>        -0.1179
     13 C10        -1.1492    2.7761   16.2425 C.ar      1 <0>        -0.0990
     14 C11        -1.7799    2.6810   15.0176 C.ar      1 <0>        -0.1030
     15 N3         -3.7876    3.2664    9.9385 N.pl3     1 <0>        -0.7292
     16 C12        -2.3670    3.4428    9.6090 C.3       1 <0>         0.1191
     17 C13        -2.1957    3.4501    8.1118 C.2       1 <0>         0.5078
     18 O2         -3.1620    3.3210    7.3903 O.2       1 <0>        -0.4771
     19 N4         -0.9688    3.6000    7.5746 N.am      1 <0>        -0.6334
     20 C14        -0.8109    3.6068    6.1936 C.2       1 <0>         0.3095
     21 N5         -1.7280    3.4813    5.2541 N.2       1 <0>        -0.5075
     22 C15        -1.4048    3.5097    3.9761 C.2       1 <0>         0.0887
     23 C16        -0.1008    3.6714    3.6428 C.2       1 <0>        -0.1960
     24 S1          0.6447    3.7818    5.2628 S.3       1 <0>         0.0384
     25 C17         0.5407    3.7386    2.2807 C.3       1 <0>        -0.0221
     26 C18        -0.2476    2.8631    1.3046 C.3       1 <0>        -0.1692
     27 C19         0.5918    2.6135    0.0501 C.3       1 <0>        -0.1217
     28 C20        -0.2384    2.9434   -1.1921 C.3       1 <0>        -0.1247
     29 C21        -1.2080    4.0821   -0.8693 C.3       1 <0>        -0.1299
     30 C22        -2.5675    3.4991   -0.4788 C.3       1 <0>        -0.1379
     31 C23        -3.5482    4.6381   -0.1931 C.3       1 <0>        -0.1247
     32 C24        -3.8466    4.6895    1.3068 C.3       1 <0>        -0.1222
     33 C25        -2.5320    4.6556    2.0889 C.3       1 <0>        -0.1343
     34 C26        -2.4598    3.3662    2.9095 C.3       1 <0>        -0.0588
     35 H1         -6.3816    2.9561   10.2099 H         1 <0>         0.0869
     36 H2         -7.1740    3.7739   11.5991 H         1 <0>         0.0782
     37 H3         -6.9561    1.9909   11.6117 H         1 <0>         0.0783
     38 H4         -5.4825    3.1018   15.3565 H         1 <0>         0.0890
     39 H5         -6.4745    2.0676   14.2735 H         1 <0>         0.0794
     40 H6         -6.6933    3.8505   14.2610 H         1 <0>         0.0789
     41 H7         -4.3222    4.8463   15.5612 H         1 <0>         0.1269
     42 H8         -3.1962    4.9999   17.7442 H         1 <0>         0.1319
     43 H9         -1.1643    3.6812   18.1789 H         1 <0>         0.1301
     44 H10        -0.2572    2.1989   16.4362 H         1 <0>         0.1335
     45 H11        -1.3817    2.0297   14.2536 H         1 <0>         0.1315
     46 H12        -4.5304    3.1648    9.1336 H         1 <0>         0.4478
     47 H13        -2.0102    4.3972   10.0235 H         1 <0>         0.0940
     48 H14        -1.7850    2.6152   10.0406 H         1 <0>         0.0939
     49 H15        -0.0924    3.7170    8.2290 H         1 <0>         0.4567
     50 H16         0.5381    4.7796    1.9252 H         1 <0>         0.0817
     51 H17         1.5771    3.3758    2.3452 H         1 <0>         0.0784
     52 H18        -0.4850    1.9019    1.7838 H         1 <0>         0.0648
     53 H19        -1.1809    3.3740    1.0253 H         1 <0>         0.1235
     54 H20         1.4863    3.2533    0.0742 H         1 <0>         0.0637
     55 H21         0.8973    1.5573    0.0174 H         1 <0>         0.0625
     56 H22         0.4307    3.2518   -2.0090 H         1 <0>         0.0624
     57 H23        -0.8071    2.0536   -1.5000 H         1 <0>         0.0639
     58 H24        -0.8102    4.6765   -0.0336 H         1 <0>         0.0727
     59 H25        -1.3254    4.7256   -1.7537 H         1 <0>         0.0622
     60 H26        -2.9526    2.8822   -1.3041 H         1 <0>         0.0632
     61 H27        -2.4550    2.8777    0.4219 H         1 <0>         0.0787
     62 H28        -3.1042    5.5928   -0.5117 H         1 <0>         0.0639
     63 H29        -4.4825    4.4652   -0.7473 H         1 <0>         0.0622
     64 H30        -4.3892    5.6172    1.5411 H         1 <0>         0.0626
     65 H31        -4.4633    3.8231    1.5879 H         1 <0>         0.0661
     66 H32        -1.6864    4.6909    1.3863 H         1 <0>         0.0877
     67 H33        -2.4844    5.5229    2.7638 H         1 <0>         0.0612
     68 H34        -2.2019    2.5248    2.2495 H         1 <0>         0.0887
     69 H35        -3.4350    3.1763    3.3816 H         1 <0>         0.0819
@<TRIPOS>BOND
     1    1    2 1
     2    1   35 1
     3    1   36 1
     4    1   37 1
     5    2    7 1
     6    2    3 2
     7    3    4 1
     8    3   15 1
     9    4    5 2
    10    4    6 am
    11    6    7 1
    12    6    9 1
    13    7    8 1
    14    8   38 1
    15    8   39 1
    16    8   40 1
    17    9   14 ar
    18    9   10 ar
    19   10   11 ar
    20   10   41 1
    21   11   12 ar
    22   11   42 1
    23   12   13 ar
    24   12   43 1
    25   13   14 ar
    26   13   44 1
    27   14   45 1
    28   15   16 1
    29   15   46 1
    30   16   17 1
    31   16   47 1
    32   16   48 1
    33   17   18 2
    34   17   19 am
    35   19   20 1
    36   19   49 1
    37   20   24 1
    38   20   21 2
    39   21   22 1
    40   22   34 1
    41   22   23 2
    42   23   24 1
    43   23   25 1
    44   25   26 1
    45   25   50 1
    46   25   51 1
    47   26   27 1
    48   26   52 1
    49   26   53 1
    50   27   28 1
    51   27   54 1
    52   27   55 1
    53   28   29 1
    54   28   56 1
    55   28   57 1
    56   29   30 1
    57   29   58 1
    58   29   59 1
    59   30   31 1
    60   30   60 1
    61   30   61 1
    62   31   32 1
    63   31   62 1
    64   31   63 1
    65   32   33 1
    66   32   64 1
    67   32   65 1
    68   33   34 1
    69   33   66 1
    70   33   67 1
    71   34   68 1
    72   34   69 1
@<TRIPOS>MOLECULE
ZINC08588843
   63    67     0     0     0
SMALL
USER_CHARGES

@<TRIPOS>ATOM
      1 C1          0.3353    0.4179    0.7773 C.3       1 <0>        -0.1445
      2 C2         -0.4083    0.8164   -0.4991 C.3       1 <0>        -0.0557
      3 C3          0.3422    0.2740   -1.7170 C.3       1 <0>        -0.1459
      4 C4         -1.8007    0.2408   -0.4697 C.ar      1 <0>        -0.0898
      5 C5         -1.9799   -1.1277   -0.3854 C.ar      1 <0>        -0.0974
      6 C6         -3.2547   -1.6584   -0.3583 C.ar      1 <0>        -0.1161
      7 C7         -4.3573   -0.8160   -0.4153 C.ar      1 <0>         0.1420
      8 C8         -4.1739    0.5580   -0.4994 C.ar      1 <0>        -0.1390
      9 C9         -2.8965    1.0827   -0.5213 C.ar      1 <0>        -0.1001
     10 N1         -5.6501   -1.3505   -0.3885 N.am      1 <0>        -0.6690
     11 C10        -5.9060   -2.5262   -0.9956 C.2       1 <0>         0.5044
     12 O1         -5.0005   -3.1615   -1.4931 O.2       1 <0>        -0.5006
     13 C11        -7.3172   -3.0514   -1.0565 C.3       1 <0>         0.1369
     14 H1         -8.0196   -2.2202   -1.1174 H         1 <0>         0.1002
     15 C12        -7.6159   -3.9001    0.1974 C.3       1 <0>        -0.1167
     16 C13        -8.4755   -5.0623   -0.3663 C.3       1 <0>        -0.1280
     17 C14        -7.8288   -5.2814   -1.7568 C.3       1 <0>         0.1191
     18 N2         -7.4750   -3.9263   -2.2274 N.pl3     1 <0>        -0.9915
     19 S1         -7.2873   -3.4674   -3.8074 S.o2      1 <0>         2.7086
     20 O2         -6.4545   -2.3160   -3.7997 O.2       1 <0>        -0.9372
     21 O3         -6.9562   -4.6422   -4.5350 O.2       1 <0>        -0.9411
     22 C15        -8.8659   -2.9432   -4.3888 C.ar      1 <0>        -0.6845
     23 C16        -9.7648   -3.8818   -4.8757 C.ar      1 <0>        -0.0184
     24 C17       -11.0045   -3.4899   -5.3352 C.ar      1 <0>        -0.1208
     25 C18       -11.3548   -2.1470   -5.3096 C.ar      1 <0>         0.0967
     26 C19       -10.4442   -1.1959   -4.8158 C.ar      1 <0>         0.0312
     27 C20        -9.1944   -1.6180   -4.3503 C.ar      1 <0>         0.0523
     28 N3        -11.0424    0.0165   -4.9084 N.2       1 <0>        -0.4681
     29 C21       -12.2416   -0.1220   -5.4182 C.2       1 <0>         0.3343
     30 N4        -12.4825   -1.4430   -5.6837 N.pl3     1 <0>        -0.5937
     31 H2        -13.2937   -1.8151   -6.0637 H         1 <0>         0.4276
     32 C22       -13.1922    0.9832   -5.6690 C.ar      1 <0>        -0.0381
     33 C23       -14.4495    0.7162   -6.2120 C.ar      1 <0>        -0.1005
     34 C24       -15.3315    1.7516   -6.4436 C.ar      1 <0>        -0.1177
     35 C25       -14.9717    3.0521   -6.1386 C.ar      1 <0>        -0.0984
     36 C26       -13.7264    3.3235   -5.6004 C.ar      1 <0>        -0.1182
     37 C27       -12.8375    2.2964   -5.3583 C.ar      1 <0>        -0.0670
     38 H3          1.3424    0.8343    0.7561 H         1 <0>         0.0576
     39 H4         -0.1994    0.8044    1.6450 H         1 <0>         0.0555
     40 H5          0.3926   -0.6687    0.8402 H         1 <0>         0.0566
     41 H6         -0.4656    1.9031   -0.5619 H         1 <0>         0.0767
     42 H7          0.3995   -0.8127   -1.6541 H         1 <0>         0.0569
     43 H8         -0.1876    0.5579   -2.6263 H         1 <0>         0.0564
     44 H9          1.3493    0.6903   -1.7383 H         1 <0>         0.0576
     45 H10        -1.1221   -1.7824   -0.3411 H         1 <0>         0.1235
     46 H11        -3.3940   -2.7274   -0.2932 H         1 <0>         0.1367
     47 H12        -5.0294    1.2158   -0.5443 H         1 <0>         0.1250
     48 H13        -2.7533    2.1514   -0.5826 H         1 <0>         0.1247
     49 H14        -6.3622   -0.8748    0.0671 H         1 <0>         0.4102
     50 H15        -6.6926   -4.2802    0.6347 H         1 <0>         0.0858
     51 H16        -8.1808   -3.3221    0.9287 H         1 <0>         0.0942
     52 H17        -8.3813   -5.9541    0.2533 H         1 <0>         0.0917
     53 H18        -9.5195   -4.7645   -0.4635 H         1 <0>         0.0819
     54 H19        -6.9347   -5.8983   -1.6663 H         1 <0>         0.0807
     55 H20        -8.5425   -5.7440   -2.4384 H         1 <0>         0.0827
     56 H21        -9.4914   -4.9264   -4.8953 H         1 <0>         0.1476
     57 H22       -11.6997   -4.2247   -5.7137 H         1 <0>         0.1369
     58 H23        -8.4890   -0.8968   -3.9649 H         1 <0>         0.1495
     59 H24       -14.7315   -0.2986   -6.4509 H         1 <0>         0.1204
     60 H25       -16.3049    1.5463   -6.8642 H         1 <0>         0.1314
     61 H26       -15.6657    3.8591   -6.3218 H         1 <0>         0.1301
     62 H27       -13.4513    4.3410   -5.3648 H         1 <0>         0.1336
     63 H28       -11.8677    2.5090   -4.9333 H         1 <0>         0.1405
@<TRIPOS>BOND
     1    1    2 1
     2    1   38 1
     3    1   39 1
     4    1   40 1
     5    2    3 1
     6    2    4 1
     7    2   41 1
     8    3   42 1
     9    3   43 1
    10    3   44 1
    11    4    9 ar
    12    4    5 ar
    13    5    6 ar
    14    5   45 1
    15    6    7 ar
    16    6   46 1
    17    7    8 ar
    18    7   10 1
    19    8    9 ar
    20    8   47 1
    21    9   48 1
    22   10   11 am
    23   10   49 1
    24   11   12 2
    25   11   13 1
    26   13   14 1
    27   13   18 1
    28   13   15 1
    29   15   16 1
    30   15   50 1
    31   15   51 1
    32   16   17 1
    33   16   52 1
    34   16   53 1
    35   17   18 1
    36   17   54 1
    37   17   55 1
    38   18   19 1
    39   19   20 2
    40   19   21 2
    41   19   22 1
    42   22   27 ar
    43   22   23 ar
    44   23   24 ar
    45   23   56 1
    46   24   25 ar
    47   24   57 1
    48   25   30 1
    49   25   26 ar
    50   26   27 ar
    51   26   28 1
    52   27   58 1
    53   28   29 2
    54   29   30 1
    55   29   32 1
    56   30   31 1
    57   32   37 ar
    58   32   33 ar
    59   33   34 ar
    60   33   59 1
    61   34   35 ar
    62   34   60 1
    63   35   36 ar
    64   35   61 1
    65   36   37 ar
    66   36   62 1
    67   37   63 1
@<TRIPOS>MOLECULE
ZINC40804192
   62    66     0     0     0
SMALL
USER_CHARGES

@<TRIPOS>ATOM
      1 C1         -0.6114   -1.1419   -0.5121 C.3       1 <0>        -0.1027
      2 C2         -0.6075   -2.4595    0.2193 C.2       1 <0>        -0.0180
      3 C3         -0.7542   -3.7335   -0.3432 C.2       1 <0>        -0.1545
      4 C4         -0.6917   -4.6471    0.6825 C.2       1 <0>         0.0695
      5 O1         -0.5127   -3.9779    1.8189 O.3       1 <0>        -0.1466
      6 C5         -0.4540   -2.6510    1.5640 C.2       1 <0>        -0.1027
      7 C6         -0.2612   -1.5941    2.5635 C.2       1 <0>         0.6068
      8 O2         -0.2274   -0.4280    2.2172 O.2       1 <0>        -0.4854
      9 N1         -0.1216   -1.9148    3.8651 N.am      1 <0>        -0.5105
     10 N2          0.0625   -0.9058    4.8194 N.pl3     1 <0>        -0.3755
     11 C7         -1.0169   -0.1103    5.2121 C.ar      1 <0>         0.2084
     12 C8         -0.8040    1.0091    6.0069 C.ar      1 <0>        -0.1695
     13 C9         -1.8731    1.7934    6.3928 C.ar      1 <0>        -0.0773
     14 C10        -3.1545    1.4654    5.9893 C.ar      1 <0>        -0.1602
     15 C11        -3.3701    0.3519    5.1981 C.ar      1 <0>        -0.0788
     16 C12        -2.3049   -0.4336    4.8038 C.ar      1 <0>        -0.1680
     17 C13         1.3254   -0.6949    5.3784 C.ar      1 <0>         0.1568
     18 C14         2.4223   -0.4705    4.5558 C.ar      1 <0>        -0.1227
     19 C15         3.6691   -0.2620    5.1117 C.ar      1 <0>        -0.1024
     20 C16         3.8267   -0.2769    6.4855 C.ar      1 <0>        -0.1233
     21 C17         2.7370   -0.5000    7.3073 C.ar      1 <0>        -0.1023
     22 C18         1.4863   -0.7035    6.7583 C.ar      1 <0>        -0.1249
     23 C19        -0.8169   -6.1338    0.4656 C.3       1 <0>        -0.0448
     24 C20        -1.5092   -6.3956   -0.8747 C.3       1 <0>        -0.1097
     25 C21        -0.7991   -5.6442   -2.0056 C.3       1 <0>        -0.1189
     26 C22        -0.9437   -4.1511   -1.7500 C.2       1 <0>         0.1647
     27 N3         -1.2141   -3.3058   -2.6967 N.2       1 <0>        -0.2155
     28 N4         -1.3835   -3.7577   -4.0120 N.am      1 <0>        -0.5805
     29 C23        -1.6643   -2.8798   -4.9953 C.2       1 <0>         0.5767
     30 O3         -1.7706   -1.6954   -4.7408 O.2       1 <0>        -0.4947
     31 C24        -1.8431   -3.3565   -6.3828 C.ar      1 <0>        -0.1337
     32 C25        -1.7275   -4.7162   -6.6773 C.ar      1 <0>        -0.0886
     33 C26        -1.8960   -5.1545   -7.9744 C.ar      1 <0>        -0.1253
     34 C27        -2.1790   -4.2498   -8.9824 C.ar      1 <0>        -0.0893
     35 C28        -2.2949   -2.9008   -8.6973 C.ar      1 <0>        -0.1240
     36 C29        -2.1340   -2.4498   -7.4036 C.ar      1 <0>        -0.0546
     37 H1          0.4054   -0.8907   -0.8137 H         1 <0>         0.0775
     38 H2         -1.2441   -1.2191   -1.3964 H         1 <0>         0.0883
     39 H3         -0.9986   -0.3629    0.1447 H         1 <0>         0.0867
     40 H4         -0.1486   -2.8443    4.1411 H         1 <0>         0.4198
     41 H5          0.1964    1.2654    6.3229 H         1 <0>         0.1271
     42 H6         -1.7083    2.6637    7.0107 H         1 <0>         0.1263
     43 H7         -3.9889    2.0801    6.2931 H         1 <0>         0.1223
     44 H8         -4.3721    0.0984    4.8851 H         1 <0>         0.1236
     45 H9         -2.4734   -1.3005    4.1822 H         1 <0>         0.1162
     46 H10         2.3000   -0.4595    3.4828 H         1 <0>         0.1232
     47 H11         4.5222   -0.0875    4.4728 H         1 <0>         0.1274
     48 H12         4.8030   -0.1143    6.9176 H         1 <0>         0.1267
     49 H13         2.8636   -0.5113    8.3798 H         1 <0>         0.1300
     50 H14         0.6349   -0.8732    7.4008 H         1 <0>         0.1290
     51 H15         0.1754   -6.5847    0.4564 H         1 <0>         0.1040
     52 H16        -1.4073   -6.5703    1.2712 H         1 <0>         0.1010
     53 H17        -1.4899   -7.4647   -1.0861 H         1 <0>         0.0945
     54 H18        -2.5447   -6.0605   -0.8155 H         1 <0>         0.0771
     55 H19         0.2569   -5.9140   -2.0198 H         1 <0>         0.0998
     56 H20        -1.2572   -5.8998   -2.9611 H         1 <0>         0.0787
     57 H21        -1.2988   -4.7025   -4.2149 H         1 <0>         0.3849
     58 H22        -1.5063   -5.4233   -5.8915 H         1 <0>         0.1220
     59 H23        -1.8065   -6.2060   -8.2037 H         1 <0>         0.1318
     60 H24        -2.3096   -4.5982   -9.9963 H         1 <0>         0.1308
     61 H25        -2.5159   -2.2000   -9.4887 H         1 <0>         0.1342
     62 H26        -2.2291   -1.3971   -7.1817 H         1 <0>         0.1397
@<TRIPOS>BOND
     1    1    2 1
     2    1   37 1
     3    1   38 1
     4    1   39 1
     5    2    6 2
     6    2    3 1
     7    3   26 1
     8    3    4 2
     9    4    5 1
    10    4   23 1
    11    5    6 1
    12    6    7 1
    13    7    8 2
    14    7    9 am
    15    9   10 1
    16    9   40 1
    17   10   11 1
    18   10   17 1
    19   11   16 ar
    20   11   12 ar
    21   12   13 ar
    22   12   41 1
    23   13   14 ar
    24   13   42 1
    25   14   15 ar
    26   14   43 1
    27   15   16 ar
    28   15   44 1
    29   16   45 1
    30   17   22 ar
    31   17   18 ar
    32   18   19 ar
    33   18   46 1
    34   19   20 ar
    35   19   47 1
    36   20   21 ar
    37   20   48 1
    38   21   22 ar
    39   21   49 1
    40   22   50 1
    41   23   24 1
    42   23   51 1
    43   23   52 1
    44   24   25 1
    45   24   53 1
    46   24   54 1
    47   25   26 1
    48   25   55 1
    49   25   56 1
    50   26   27 2
    51   27   28 1
    52   28   29 am
    53   28   57 1
    54   29   30 2
    55   29   31 1
    56   31   36 ar
    57   31   32 ar
    58   32   33 ar
    59   32   58 1
    60   33   34 ar
    61   33   59 1
    62   34   35 ar
    63   34   60 1
    64   35   36 ar
    65   35   61 1
    66   36   62 1
@<TRIPOS>MOLECULE
ZINC06917830
   56    59     0     0     0
SMALL
USER_CHARGES
2-(2-oxo-6,8-ditert-butyl-chromen-3-yl)-3H-benzoimidazole-5-carboxylic acid
@<TRIPOS>ATOM
      1 C1         -2.1916   -0.5307    0.0094 C.3       1 <0>        -0.1501
      2 C2         -2.4960    0.9687    0.0191 C.3       1 <0>        -0.0271
      3 C3         -3.2984    1.3181    1.2741 C.3       1 <0>        -0.1407
      4 C4         -3.3102    1.3317   -1.2244 C.3       1 <0>        -0.1406
      5 C5         -1.2036    1.7437    0.0172 C.ar      1 <0>        -0.0884
      6 C6         -0.0126    1.0758    0.0080 C.ar      1 <0>        -0.0573
      7 C7          1.1914    1.7946    0.0003 C.ar      1 <0>        -0.1416
      8 C8          2.4328    1.1074   -0.0148 C.2       1 <0>         0.0361
      9 C9          3.6006    1.8460   -0.0215 C.2       1 <0>        -0.1463
     10 C10         3.5115    3.3110   -0.0128 C.2       1 <0>         0.5193
     11 O1          4.5275    3.9808   -0.0188 O.2       1 <0>        -0.4583
     12 O2          2.3115    3.9143    0.0015 O.3       1 <0>        -0.2483
     13 C11         1.1650    3.2006    0.0082 C.ar      1 <0>         0.1443
     14 C12        -0.0601    3.8577    0.0234 C.ar      1 <0>        -0.0810
     15 C13        -1.2321    3.1308    0.0307 C.ar      1 <0>        -0.0606
     16 C14        -0.1074    5.3639    0.0315 C.3       1 <0>        -0.0224
     17 C15        -1.5651    5.8283    0.0481 C.3       1 <0>        -0.1453
     18 C16         0.6096    5.8900    1.2765 C.3       1 <0>        -0.1443
     19 C17         0.5853    5.9026   -1.2218 C.3       1 <0>        -0.1443
     20 C18         4.9132    1.1742   -0.0367 C.2       1 <0>         0.3079
     21 N1          6.1241    1.8118   -0.0444 N.pl3     1 <0>        -0.5837
     22 H1          6.2757    2.8002   -0.0413 H         1 <0>         0.4358
     23 C19         7.0987    0.8300   -0.0573 C.ar      1 <0>         0.0485
     24 C20         8.4814    0.8536   -0.0688 C.ar      1 <0>        -0.0845
     25 C21         9.1911   -0.3477   -0.0800 C.ar      1 <0>        -0.0856
     26 C22         8.5046   -1.5707   -0.0795 C.ar      1 <0>        -0.0769
     27 C23         7.1438   -1.5996   -0.0687 C.ar      1 <0>        -0.0889
     28 C24         6.4150   -0.4017   -0.0569 C.ar      1 <0>         0.0493
     29 N2          5.0966   -0.1264   -0.0393 N.2       1 <0>        -0.4781
     30 C25        10.6650   -0.3314   -0.0928 C.2       1 <0>         0.4913
     31 O3         11.2609    0.7277   -0.0935 O.co2     1 <0>        -0.6295
     32 H2         -1.6115   -0.7894    0.8953 H         1 <0>         0.0619
     33 H3         -3.1264   -1.0913    0.0108 H         1 <0>         0.0619
     34 H4         -1.6199   -0.7797   -0.8846 H         1 <0>         0.0619
     35 H5         -3.5153    2.3863    1.2809 H         1 <0>         0.0570
     36 H6         -4.2332    0.7575    1.2754 H         1 <0>         0.0610
     37 H7         -2.7184    1.0594    2.1599 H         1 <0>         0.0587
     38 H8         -2.7386    1.0828   -2.1184 H         1 <0>         0.0587
     39 H9         -4.2450    0.7712   -1.2230 H         1 <0>         0.0610
     40 H10        -3.5271    2.3999   -1.2175 H         1 <0>         0.0570
     41 H11         0.0021   -0.0041    0.0020 H         1 <0>         0.1462
     42 H12         2.4643    0.0279   -0.0213 H         1 <0>         0.1662
     43 H13        -2.1811    3.6462    0.0426 H         1 <0>         0.1431
     44 H14        -2.0586    5.4445    0.9410 H         1 <0>         0.0597
     45 H15        -1.5993    6.9177    0.0539 H         1 <0>         0.0630
     46 H16        -2.0759    5.4535   -0.8389 H         1 <0>         0.0596
     47 H17         1.6482    5.5591    1.2647 H         1 <0>         0.0667
     48 H18         0.5754    6.9794    1.2824 H         1 <0>         0.0618
     49 H19         0.1162    5.5062    2.1694 H         1 <0>         0.0552
     50 H20         0.0745    5.5278   -2.1088 H         1 <0>         0.0552
     51 H21         0.5511    6.9921   -1.2160 H         1 <0>         0.0618
     52 H22         1.6238    5.5718   -1.2336 H         1 <0>         0.0666
     53 H23         9.0086    1.7962   -0.0694 H         1 <0>         0.1302
     54 H24         9.0601   -2.4968   -0.0882 H         1 <0>         0.1408
     55 H25         6.6246   -2.5466   -0.0688 H         1 <0>         0.1259
     56 O4         11.3517   -1.4909   -0.1036 O.co2     1 <0>        -0.7496
@<TRIPOS>BOND
     1    1    2 1
     2    1   32 1
     3    1   33 1
     4    1   34 1
     5    2    3 1
     6    2    4 1
     7    2    5 1
     8    3   35 1
     9    3   36 1
    10    3   37 1
    11    4   38 1
    12    4   39 1
    13    4   40 1
    14    5   15 ar
    15    5    6 ar
    16    6    7 ar
    17    6   41 1
    18    7   13 ar
    19    7    8 1
    20    8    9 2
    21    8   42 1
    22    9   10 1
    23    9   20 1
    24   10   11 2
    25   10   12 1
    26   12   13 1
    27   13   14 ar
    28   14   15 ar
    29   14   16 1
    30   15   43 1
    31   16   17 1
    32   16   18 1
    33   16   19 1
    34   17   44 1
    35   17   45 1
    36   17   46 1
    37   18   47 1
    38   18   48 1
    39   18   49 1
    40   19   50 1
    41   19   51 1
    42   19   52 1
    43   20   29 2
    44   20   21 1
    45   21   22 1
    46   21   23 1
    47   23   28 ar
    48   23   24 ar
    49   24   25 ar
    50   24   53 1
    51   25   26 ar
    52   25   30 1
    53   26   27 ar
    54   26   54 1
    55   27   28 ar
    56   27   55 1
    57   28   29 1
    58   30   31 2
    59   30   56 1
@<TRIPOS>MOLECULE
ZINC15107126
   42    45     0     0     0
SMALL
USER_CHARGES
(7S)-5-oxo-3-phenyl-7-[2-(trifluoromethyl)phenyl]-6,7-dihydro-4H-thieno[4,5-b]pyridine-2-carboxylic acid
@<TRIPOS>ATOM
      1 C1          6.0055    2.5588   -1.2397 C.ar      1 <0>        -0.1240
      2 C2          5.3063    3.4353   -2.0501 C.ar      1 <0>        -0.1203
      3 C3          4.0903    3.9402   -1.6374 C.ar      1 <0>        -0.0593
      4 C4          3.5663    3.5649   -0.4003 C.ar      1 <0>        -0.0034
      5 C5          4.2786    2.6848    0.4145 C.ar      1 <0>        -0.1160
      6 C6          5.4911    2.1828   -0.0117 C.ar      1 <0>        -0.1263
      7 C7          2.2621    4.1034    0.0488 C.2       1 <0>        -0.1024
      8 C8          1.1582    3.2717    0.2300 C.2       1 <0>         0.1345
      9 C9         -0.0011    3.8647    0.6557 C.2       1 <0>        -0.2858
     10 S1          0.3749    5.5343    0.8042 S.3       1 <0>         0.2218
     11 C10         2.0888    5.4663    0.3086 C.2       1 <0>        -0.1109
     12 C11         3.0306    6.5212    0.2058 C.2       1 <0>         0.5126
     13 O1          4.1696    6.2871   -0.1525 O.co2     1 <0>        -0.5939
     14 C12        -1.2901    3.1517    0.9209 C.3       1 <0>         0.0359
     15 H1         -2.1281    3.8090    0.6889 H         1 <0>         0.1065
     16 C13        -1.3442    1.9076    0.0190 C.3       1 <0>        -0.1236
     17 C14        -0.0144    1.2089    0.0087 C.2       1 <0>         0.5244
     18 O2          0.0021   -0.0041    0.0020 O.2       1 <0>        -0.5391
     19 N1          1.1577    1.8660    0.0010 N.am      1 <0>        -0.6483
     20 C15        -1.3539    2.7389    2.3688 C.ar      1 <0>        -0.0244
     21 C16        -0.3972    1.8860    2.8873 C.ar      1 <0>        -0.1069
     22 C17        -0.4529    1.5112    4.2165 C.ar      1 <0>        -0.0817
     23 C18        -1.4714    1.9808    5.0250 C.ar      1 <0>        -0.1211
     24 C19        -2.4309    2.8292    4.5053 C.ar      1 <0>        -0.0717
     25 C20        -2.3721    3.2083    3.1771 C.ar      1 <0>        -0.1766
     26 C21        -3.4185    4.1330    2.6104 C.3       1 <0>         0.5058
     27 F1         -4.3355    4.4691    3.6120 F         1 <0>        -0.1769
     28 F2         -2.8039    5.2950    2.1316 F         1 <0>        -0.1673
     29 F3         -4.0874    3.4931    1.5614 F         1 <0>        -0.1758
     30 H2          6.9571    2.1666   -1.5670 H         1 <0>         0.1150
     31 H3          5.7129    3.7248   -3.0078 H         1 <0>         0.1177
     32 H4          3.5452    4.6241   -2.2711 H         1 <0>         0.1168
     33 H5          3.8802    2.3941    1.3753 H         1 <0>         0.1137
     34 H6          6.0418    1.4985    0.6166 H         1 <0>         0.1164
     35 H7         -1.6007    2.2067   -0.9973 H         1 <0>         0.1132
     36 H8         -2.1060    1.2245    0.3948 H         1 <0>         0.1122
     37 H9          1.9887    1.3913   -0.1573 H         1 <0>         0.4124
     38 H10         0.3959    1.5157    2.2546 H         1 <0>         0.1305
     39 H11         0.2965    0.8480    4.6224 H         1 <0>         0.1322
     40 H12        -1.5175    1.6844    6.0625 H         1 <0>         0.1349
     41 H13        -3.2267    3.1958    5.1368 H         1 <0>         0.1394
     42 O3          2.6637    7.7849    0.5052 O.co2     1 <0>        -0.7403
@<TRIPOS>BOND
     1    1    6 ar
     2    1    2 ar
     3    1   30 1
     4    2    3 ar
     5    2   31 1
     6    3    4 ar
     7    3   32 1
     8    4    5 ar
     9    4    7 1
    10    5    6 ar
    11    5   33 1
    12    6   34 1
    13    7   11 2
    14    7    8 1
    15    8   19 1
    16    8    9 2
    17    9   10 1
    18    9   14 1
    19   10   11 1
    20   11   12 1
    21   12   13 2
    22   12   42 1
    23   14   15 1
    24   14   16 1
    25   14   20 1
    26   16   17 1
    27   16   35 1
    28   16   36 1
    29   17   18 2
    30   17   19 am
    31   19   37 1
    32   20   25 ar
    33   20   21 ar
    34   21   22 ar
    35   21   38 1
    36   22   23 ar
    37   22   39 1
    38   23   24 ar
    39   23   40 1
    40   24   25 ar
    41   24   41 1
    42   25   26 1
    43   26   27 1
    44   26   28 1
    45   26   29 1
@<TRIPOS>MOLECULE
ZINC16789674
   40    42     0     0     0
SMALL
USER_CHARGES
4-[(N'E)-N'-[(4-bromophenyl)methylene]hydrazino]-3-(4-ethoxyphenyl)-1H-1,2,4-triazole-5-thione
@<TRIPOS>ATOM
      1 C1         -2.2840    6.6250    3.1701 C.3       1 <0>        -0.1537
      2 C2         -1.0893    5.8951    2.5529 C.3       1 <0>         0.0513
      3 O1         -1.3362    4.4876    2.5589 O.3       1 <0>        -0.3158
      4 C3         -0.3664    3.6890    2.0418 C.ar      1 <0>         0.1279
      5 C4          0.8017    4.2516    1.5442 C.ar      1 <0>        -0.2026
      6 C5          1.7856    3.4450    1.0135 C.ar      1 <0>        -0.0825
      7 C6          1.6113    2.0606    0.9868 C.ar      1 <0>        -0.0281
      8 C7          0.4386    1.4985    1.4929 C.ar      1 <0>        -0.0442
      9 C8         -0.5431    2.3119    2.0173 C.ar      1 <0>        -0.1459
     10 C9          2.6670    1.1912    0.4228 C.2       1 <0>         0.2038
     11 N1          2.7894   -0.0902    0.6301 N.2       1 <0>        -0.2975
     12 N2          3.9102   -0.5397   -0.0814 N.2       1 <0>        -0.3688
     13 C10         4.4475    0.5269   -0.7083 C.2       1 <0>         0.3938
     14 S1          5.8380    0.5174   -1.7070 S.3       1 <0>        -0.7313
     15 N3          3.6917    1.6015   -0.4069 N.pl3     1 <0>        -0.2725
     16 N4          3.9084    2.9100   -0.8582 N.pl3     1 <0>        -0.4498
     17 N5          5.2155    3.3856   -1.0262 N.2       1 <0>        -0.1247
     18 C11         5.4161    4.5974   -1.4442 C.2       1 <0>         0.0137
     19 C12         6.7921    5.0981   -1.6211 C.ar      1 <0>         0.0027
     20 C13         7.8815    4.2721   -1.3341 C.ar      1 <0>        -0.0777
     21 C14         9.1656    4.7445   -1.5076 C.ar      1 <0>        -0.0900
     22 C15         9.3762    6.0383   -1.9534 C.ar      1 <0>        -0.0922
     23 C16         8.3009    6.8641   -2.2342 C.ar      1 <0>        -0.0959
     24 C17         7.0117    6.4022   -2.0709 C.ar      1 <0>        -0.1033
     25 Br1        11.1404    6.6803   -2.1803 Br        1 <0>        -0.0640
     26 H1         -2.0940    7.7085    3.1655 H         1 <0>         0.0779
     27 H2         -2.4280    6.2824    4.2054 H         1 <0>         0.0665
     28 H3         -3.1888    6.4089    2.5831 H         1 <0>         0.0664
     29 H4         -0.9453    6.2377    1.5176 H         1 <0>         0.0623
     30 H5         -0.1844    6.1112    3.1399 H         1 <0>         0.0626
     31 H6          0.9377    5.3227    1.5693 H         1 <0>         0.1293
     32 H7          2.6920    3.8835    0.6230 H         1 <0>         0.1279
     33 H8          0.3004    0.4275    1.4742 H         1 <0>         0.1434
     34 H9         -1.4510    1.8776    2.4092 H         1 <0>         0.1354
     35 H10         3.0523    3.5640   -1.0806 H         1 <0>         0.4145
     36 H11         4.5600    5.2513   -1.6666 H         1 <0>         0.1136
     37 H12         7.7185    3.2644   -0.9814 H         1 <0>         0.1520
     38 H13        10.0087    4.1053   -1.2910 H         1 <0>         0.1326
     39 H14         8.4720    7.8723   -2.5816 H         1 <0>         0.1307
     40 H15         6.1738    7.0474   -2.2900 H         1 <0>         0.1320
@<TRIPOS>BOND
     1    1    2 1
     2    1   26 1
     3    1   27 1
     4    1   28 1
     5    2    3 1
     6    2   29 1
     7    2   30 1
     8    3    4 1
     9    4    9 ar
    10    4    5 ar
    11    5    6 ar
    12    5   31 1
    13    6    7 ar
    14    6   32 1
    15    7    8 ar
    16    7   10 1
    17    8    9 ar
    18    8   33 1
    19    9   34 1
    20   10   15 1
    21   10   11 2
    22   11   12 1
    23   12   13 2
    24   13   14 1
    25   13   15 1
    26   15   16 1
    27   16   17 1
    28   16   35 1
    29   17   18 2
    30   18   19 1
    31   18   36 1
    32   19   24 ar
    33   19   20 ar
    34   20   21 ar
    35   20   37 1
    36   21   22 ar
    37   21   38 1
    38   22   23 ar
    39   22   25 1
    40   23   24 ar
    41   23   39 1
    42   24   40 1
@<TRIPOS>MOLECULE
ZINC39898912
   63    67     0     0     0
SMALL
USER_CHARGES

@<TRIPOS>ATOM
      1 C1         -0.4503    1.6863   -0.4720 C.3       1 <0>        -0.1171
      2 C2         -0.3621    0.1821   -0.4999 C.ar      1 <0>        -0.0750
      3 C3         -0.0286   -0.4691   -1.6727 C.ar      1 <0>        -0.1201
      4 C4          0.0523   -1.8488   -1.6983 C.ar      1 <0>        -0.0788
      5 C5         -0.1998   -2.5773   -0.5508 C.ar      1 <0>        -0.1245
      6 C6         -0.5325   -1.9261    0.6222 C.ar      1 <0>        -0.0906
      7 C7         -0.6092   -0.5461    0.6488 C.ar      1 <0>        -0.1273
      8 C8         -0.1126   -4.0816   -0.5789 C.3       1 <0>         0.1818
      9 N1          1.2527   -4.4978   -0.2490 N.am      1 <0>        -0.5888
     10 C9          2.3467   -4.6982   -1.2082 C.3       1 <0>         0.2487
     11 H1          2.0827   -5.4801   -1.9203 H         1 <0>         0.1093
     12 C10         3.5408   -5.1192   -0.3962 C.2       1 <0>        -0.1640
     13 C11         4.8883   -5.4954   -0.3881 C.2       1 <0>         0.1197
     14 N2          5.2259   -5.7258    0.8655 N.2       1 <0>        -0.2386
     15 N3          4.2256   -5.5324    1.6493 N.pl3     1 <0>        -0.3323
     16 H2          4.2437   -5.6417    2.6130 H         1 <0>         0.4536
     17 C12         3.1335   -5.1492    0.9237 C.2       1 <0>        -0.0595
     18 C13         1.7212   -4.7564    0.9852 C.2       1 <0>         0.5993
     19 O1          1.0660   -4.6786    2.0070 O.2       1 <0>        -0.5162
     20 C14         5.7745   -5.6139   -1.5726 C.ar      1 <0>        -0.0235
     21 C15         5.3340   -6.2840   -2.7111 C.ar      1 <0>        -0.0706
     22 C16         6.1624   -6.3912   -3.8112 C.ar      1 <0>        -0.0426
     23 C17         7.4301   -5.8348   -3.7856 C.ar      1 <0>        -0.0846
     24 C18         7.8758   -5.1680   -2.6602 C.ar      1 <0>        -0.1324
     25 C19         7.0523   -5.0485   -1.5522 C.ar      1 <0>         0.1417
     26 O2          7.4879   -4.3882   -0.4474 O.3       1 <0>        -0.4871
     27 Cl1         5.6127   -7.2267   -5.2302 Cl        1 <0>        -0.0609
     28 C20         2.6402   -3.4118   -1.9364 C.ar      1 <0>        -0.0999
     29 C21         2.8312   -2.2426   -1.2242 C.ar      1 <0>        -0.0708
     30 C22         3.1005   -1.0626   -1.8921 C.ar      1 <0>        -0.1055
     31 C23         3.1791   -1.0520   -3.2721 C.ar      1 <0>        -0.0555
     32 C24         2.9890   -2.2215   -3.9843 C.ar      1 <0>        -0.1212
     33 C25         2.7240   -3.4023   -3.3161 C.ar      1 <0>        -0.0998
     34 C26         3.4717    0.2345   -4.0003 C.3       1 <0>        -0.0296
     35 C27         4.8282    0.7791   -3.5486 C.3       1 <0>        -0.1391
     36 C28         3.5038   -0.0283   -5.5072 C.3       1 <0>        -0.1447
     37 C29         2.3800    1.2589   -3.6845 C.3       1 <0>        -0.1389
     38 H3          0.5242    2.1027   -0.2170 H         1 <0>         0.0694
     39 H4         -0.7557    2.0505   -1.4529 H         1 <0>         0.0661
     40 H5         -1.1832    1.9935    0.2740 H         1 <0>         0.0657
     41 H6          0.1685    0.1001   -2.5692 H         1 <0>         0.1199
     42 H7          0.3122   -2.3576   -2.6148 H         1 <0>         0.1192
     43 H8         -0.7298   -2.4953    1.5186 H         1 <0>         0.1227
     44 H9         -0.8655   -0.0371    1.5663 H         1 <0>         0.1191
     45 H10        -0.8062   -4.4994    0.1507 H         1 <0>         0.0983
     46 H11        -0.3717   -4.4420   -1.5744 H         1 <0>         0.0960
     47 H12         4.3460   -6.7196   -2.7338 H         1 <0>         0.1386
     48 H13         8.0734   -5.9225   -4.6486 H         1 <0>         0.1408
     49 H14         8.8655   -4.7359   -2.6458 H         1 <0>         0.1429
     50 H15         7.9426   -4.9515    0.1937 H         1 <0>         0.3963
     51 H16         2.7697   -2.2508   -0.1460 H         1 <0>         0.1076
     52 H17         3.2490   -0.1489   -1.3357 H         1 <0>         0.1155
     53 H18         3.0502   -2.2131   -5.0625 H         1 <0>         0.1271
     54 H19         2.5792   -4.3166   -3.8723 H         1 <0>         0.1219
     55 H20         5.6060    0.0493   -3.7736 H         1 <0>         0.0565
     56 H21         5.0398    1.7097   -4.0753 H         1 <0>         0.0584
     57 H22         4.8053    0.9664   -2.4750 H         1 <0>         0.0556
     58 H23         2.5374   -0.4163   -5.8291 H         1 <0>         0.0588
     59 H24         3.7154    0.9022   -6.0339 H         1 <0>         0.0580
     60 H25         4.2815   -0.7581   -5.7323 H         1 <0>         0.0589
     61 H26         2.3571    1.4462   -2.6109 H         1 <0>         0.0574
     62 H27         2.5916    2.1895   -4.2112 H         1 <0>         0.0583
     63 H28         1.4136    0.8709   -4.0063 H         1 <0>         0.0565
@<TRIPOS>BOND
     1    1    2 1
     2    1   38 1
     3    1   39 1
     4    1   40 1
     5    2    7 ar
     6    2    3 ar
     7    3    4 ar
     8    3   41 1
     9    4    5 ar
    10    4   42 1
    11    5    6 ar
    12    5    8 1
    13    6    7 ar
    14    6   43 1
    15    7   44 1
    16    8    9 1
    17    8   45 1
    18    8   46 1
    19    9   18 am
    20    9   10 1
    21   10   11 1
    22   10   12 1
    23   10   28 1
    24   12   17 2
    25   12   13 1
    26   13   14 2
    27   13   20 1
    28   14   15 1
    29   15   16 1
    30   15   17 1
    31   17   18 1
    32   18   19 2
    33   20   25 ar
    34   20   21 ar
    35   21   22 ar
    36   21   47 1
    37   22   23 ar
    38   22   27 1
    39   23   24 ar
    40   23   48 1
    41   24   25 ar
    42   24   49 1
    43   25   26 1
    44   26   50 1
    45   28   33 ar
    46   28   29 ar
    47   29   30 ar
    48   29   51 1
    49   30   31 ar
    50   30   52 1
    51   31   32 ar
    52   31   34 1
    53   32   33 ar
    54   32   53 1
    55   33   54 1
    56   34   35 1
    57   34   36 1
    58   34   37 1
    59   35   55 1
    60   35   56 1
    61   35   57 1
    62   36   58 1
    63   36   59 1
    64   36   60 1
    65   37   61 1
    66   37   62 1
    67   37   63 1
@<TRIPOS>MOLECULE
ZINC02407755
   57    60     0     0     0
SMALL
USER_CHARGES

@<TRIPOS>ATOM
      1 C1         -1.0154    2.3186    1.0981 C.3       1 <0>        -0.1099
      2 C2         -0.7904    0.8477    0.8596 C.ar      1 <0>        -0.1236
      3 C3         -0.7121    0.3610   -0.4320 C.ar      1 <0>        -0.0781
      4 C4         -0.5057   -0.9881   -0.6508 C.ar      1 <0>        -0.1468
      5 C5         -0.3772   -1.8507    0.4220 C.ar      1 <0>         0.0177
      6 C6         -0.4547   -1.3639    1.7133 C.ar      1 <0>        -0.6295
      7 C7         -0.6568   -0.0138    1.9321 C.ar      1 <0>        -0.0265
      8 S1         -0.2915   -2.4633    3.0805 S.o2      1 <0>         2.6433
      9 O1          0.8659   -3.2498    2.8333 O.2       1 <0>        -1.0091
     10 O2         -0.4415   -1.6766    4.2543 O.2       1 <0>        -1.0152
     11 N1         -1.5846   -3.4967    3.0348 N.2       1 <0>        -1.0694
     12 C8         -1.7194   -4.4818    4.0014 C.ar      1 <0>         0.4178
     13 C9         -2.8235   -5.3668    3.9549 C.ar      1 <0>         0.3721
     14 N2         -2.9632   -6.3067    4.8667 N.ar      1 <0>        -0.4927
     15 C10        -2.0536   -6.4265    5.8451 C.ar      1 <0>         0.0417
     16 C11        -2.1802   -7.4208    6.8284 C.ar      1 <0>        -0.0731
     17 C12        -1.2431   -7.5226    7.8117 C.ar      1 <0>        -0.1478
     18 C13        -0.1571   -6.6524    7.8572 C.ar      1 <0>        -0.1152
     19 C14        -0.0031   -5.6764    6.9195 C.ar      1 <0>        -0.1041
     20 C15        -0.9496   -5.5421    5.8913 C.ar      1 <0>         0.1186
     21 N3         -0.8168   -4.5919    4.9537 N.ar      1 <0>        -0.5669
     22 N4         -3.7644   -5.2428    2.9428 N.pl3     1 <0>        -0.6372
     23 C16        -4.9163   -6.0337    2.9589 C.ar      1 <0>         0.1796
     24 C17        -5.5423   -6.3273    4.1638 C.ar      1 <0>        -0.1159
     25 C18        -6.6805   -7.1093    4.1761 C.ar      1 <0>        -0.0969
     26 C19        -7.1971   -7.5999    2.9908 C.ar      1 <0>        -0.1136
     27 C20        -6.5764   -7.3096    1.7897 C.ar      1 <0>        -0.0942
     28 C21        -5.4412   -6.5234    1.7696 C.ar      1 <0>        -0.1577
     29 C22        -8.4391   -8.4533    3.0083 C.3       1 <0>        -0.0506
     30 C23        -9.5337   -7.7779    2.1796 C.3       1 <0>        -0.1427
     31 C24        -8.1226   -9.8266    2.4126 C.3       1 <0>        -0.1430
     32 C25        -0.1533   -3.3217    0.1835 C.3       1 <0>        -0.1440
     33 H1         -0.0538    2.8289    1.1541 H         1 <0>         0.0674
     34 H2         -1.6002    2.7345    0.2777 H         1 <0>         0.0641
     35 H3         -1.5549    2.4564    2.0352 H         1 <0>         0.0672
     36 H4         -0.8124    1.0348   -1.2701 H         1 <0>         0.1222
     37 H5         -0.4452   -1.3684   -1.6598 H         1 <0>         0.1251
     38 H6         -0.7135    0.3672    2.9411 H         1 <0>         0.1367
     39 H7         -3.0178   -8.1022    6.8053 H         1 <0>         0.1204
     40 H8         -1.3440   -8.2884    8.5665 H         1 <0>         0.1158
     41 H9          0.5729   -6.7524    8.6468 H         1 <0>         0.1164
     42 H10         0.8443   -5.0084    6.9667 H         1 <0>         0.1231
     43 H11        -3.6226   -4.6071    2.2240 H         1 <0>         0.4294
     44 H12        -5.1392   -5.9447    5.0898 H         1 <0>         0.1295
     45 H13        -7.1676   -7.3382    5.1125 H         1 <0>         0.1159
     46 H14        -6.9825   -7.6943    0.8658 H         1 <0>         0.1161
     47 H15        -4.9595   -6.2934    0.8307 H         1 <0>         0.1200
     48 H16        -8.7830   -8.5734    4.0356 H         1 <0>         0.0724
     49 H17        -9.1897   -7.6579    1.1523 H         1 <0>         0.0551
     50 H18       -10.4320   -8.3952    2.1922 H         1 <0>         0.0520
     51 H19        -9.7591   -6.7996    2.6040 H         1 <0>         0.0547
     52 H20        -7.3428  -10.3078    3.0030 H         1 <0>         0.0555
     53 H21        -9.0209  -10.4439    2.4253 H         1 <0>         0.0519
     54 H22        -7.7787   -9.7066    1.3853 H         1 <0>         0.0550
     55 H23         0.9168   -3.5221    0.1284 H         1 <0>         0.0838
     56 H24        -0.5881   -3.8931    1.0035 H         1 <0>         0.0937
     57 H25        -0.6264   -3.6139   -0.7540 H         1 <0>         0.0696
@<TRIPOS>BOND
     1    1    2 1
     2    1   33 1
     3    1   34 1
     4    1   35 1
     5    2    7 ar
     6    2    3 ar
     7    3    4 ar
     8    3   36 1
     9    4    5 ar
    10    4   37 1
    11    5    6 ar
    12    5   32 1
    13    6    7 ar
    14    6    8 1
    15    7   38 1
    16    8    9 2
    17    8   10 2
    18    8   11 1
    19   11   12 1
    20   12   21 ar
    21   12   13 ar
    22   13   14 ar
    23   13   22 1
    24   14   15 ar
    25   15   20 ar
    26   15   16 ar
    27   16   17 ar
    28   16   39 1
    29   17   18 ar
    30   17   40 1
    31   18   19 ar
    32   18   41 1
    33   19   20 ar
    34   19   42 1
    35   20   21 ar
    36   22   23 1
    37   22   43 1
    38   23   28 ar
    39   23   24 ar
    40   24   25 ar
    41   24   44 1
    42   25   26 ar
    43   25   45 1
    44   26   27 ar
    45   26   29 1
    46   27   28 ar
    47   27   46 1
    48   28   47 1
    49   29   30 1
    50   29   31 1
    51   29   48 1
    52   30   49 1
    53   30   50 1
    54   30   51 1
    55   31   52 1
    56   31   53 1
    57   31   54 1
    58   32   55 1
    59   32   56 1
    60   32   57 1
@<TRIPOS>MOLECULE
ZINC13658686
   66    69     0     0     0
SMALL
USER_CHARGES

@<TRIPOS>ATOM
      1 C1          0.3591    1.6996   -0.8964 C.3       1 <0>        -0.1453
      2 C2          0.5693    0.3245   -1.5333 C.3       1 <0>         0.0742
      3 H1          0.3780    0.3863   -2.6046 H         1 <0>         0.0618
      4 C3         -0.3930   -0.6862   -0.8989 C.3       1 <0>         0.0921
      5 N1         -0.0453   -2.0292   -1.3895 N.pl3     1 <0>        -0.6314
      6 C4          1.3605   -2.4552   -1.3017 C.3       1 <0>         0.0910
      7 C5          2.2374   -1.3583   -1.9165 C.3       1 <0>         0.0741
      8 H2          2.0527   -1.3032   -2.9894 H         1 <0>         0.0620
      9 O1          1.9155   -0.1032   -1.3125 O.3       1 <0>        -0.3742
     10 C6          3.7116   -1.6832   -1.6677 C.3       1 <0>        -0.1455
     11 C7         -1.0226   -2.8763   -1.9234 C.ar      1 <0>         0.2296
     12 C8         -0.6550   -4.0885   -2.4930 C.ar      1 <0>        -0.1896
     13 C9         -1.6194   -4.9243   -3.0198 C.ar      1 <0>        -0.0165
     14 C10        -2.9568   -4.5530   -2.9802 C.ar      1 <0>         0.0614
     15 C11        -3.3244   -3.3409   -2.4112 C.ar      1 <0>        -0.0678
     16 C12        -2.3608   -2.5077   -1.8787 C.ar      1 <0>        -0.1946
     17 N2         -3.9356   -5.4014   -3.5149 N.pl3     1 <0>        -0.6212
     18 C13        -3.8753   -6.7282   -3.2861 C.2       1 <0>         0.5464
     19 S1         -2.6948   -7.3601   -2.2193 S.2       1 <0>        -0.6005
     20 N3         -4.7443   -7.5576   -3.8972 N.pl3     1 <0>        -0.6189
     21 C14        -4.6020   -8.9451   -3.7618 C.ar      1 <0>         0.0591
     22 C15        -5.7277   -9.7521   -3.6638 C.ar      1 <0>        -0.0711
     23 C16        -5.5876  -11.1192   -3.5309 C.ar      1 <0>        -0.1955
     24 C17        -4.3208  -11.6872   -3.4950 C.ar      1 <0>         0.2296
     25 C18        -3.1949  -10.8799   -3.5930 C.ar      1 <0>        -0.1897
     26 C19        -3.3354   -9.5133   -3.7313 C.ar      1 <0>        -0.0211
     27 N4         -4.1787  -13.0726   -3.3598 N.pl3     1 <0>        -0.6280
     28 C20        -2.8527  -13.6838   -3.1766 C.3       1 <0>         0.0926
     29 C21        -2.9166  -14.6239   -1.9674 C.3       1 <0>         0.0681
     30 H3         -3.0571  -14.0389   -1.0585 H         1 <0>         0.0677
     31 O2         -4.0142  -15.5253   -2.1296 O.3       1 <0>        -0.3713
     32 C22        -5.2931  -14.8880   -2.1763 C.3       1 <0>         0.0726
     33 H4         -6.0740  -15.6442   -2.2561 H         1 <0>         0.1119
     34 C23        -5.3514  -13.9609   -3.3905 C.3       1 <0>         0.0916
     35 C24        -5.5029  -14.0693   -0.9009 C.3       1 <0>        -0.1830
     36 C25        -1.6124  -15.4177   -1.8678 C.3       1 <0>        -0.1453
     37 H5          1.0449    2.4173   -1.3467 H         1 <0>         0.0682
     38 H6         -0.6679    2.0243   -1.0635 H         1 <0>         0.0739
     39 H7          0.5506    1.6370    0.1749 H         1 <0>         0.0666
     40 H8         -0.2950   -0.6551    0.1863 H         1 <0>         0.0711
     41 H9         -1.4175   -0.4456   -1.1825 H         1 <0>         0.0919
     42 H10         1.6350   -2.6022   -0.2572 H         1 <0>         0.0719
     43 H11         1.4971   -3.3860   -1.8522 H         1 <0>         0.0943
     44 H12         3.9548   -2.6418   -2.1261 H         1 <0>         0.0749
     45 H13         4.3345   -0.9029   -2.1051 H         1 <0>         0.0680
     46 H14         3.8959   -1.7364   -0.5947 H         1 <0>         0.0666
     47 H15         0.3853   -4.3772   -2.5241 H         1 <0>         0.1274
     48 H16        -1.3336   -5.8668   -3.4630 H         1 <0>         0.1394
     49 H17        -4.3647   -3.0521   -2.3807 H         1 <0>         0.1230
     50 H18        -2.6472   -1.5673   -1.4315 H         1 <0>         0.1265
     51 H19        -4.6565   -5.0337   -4.0497 H         1 <0>         0.4043
     52 H20        -5.4682   -7.1941   -4.4308 H         1 <0>         0.4046
     53 H21        -6.7128   -9.3104   -3.6913 H         1 <0>         0.1220
     54 H22        -6.4632  -11.7469   -3.4543 H         1 <0>         0.1260
     55 H23        -2.2097  -11.3214   -3.5649 H         1 <0>         0.1266
     56 H24        -2.4600   -8.8859   -3.8116 H         1 <0>         0.1484
     57 H25        -2.5831  -14.2501   -4.0680 H         1 <0>         0.0705
     58 H26        -2.1112  -12.9052   -2.9974 H         1 <0>         0.0931
     59 H27        -6.2638  -13.3658   -3.3530 H         1 <0>         0.0926
     60 H28        -5.3377  -14.5556   -4.3039 H         1 <0>         0.0704
     61 H29        -4.7227  -13.3122   -0.8227 H         1 <0>         0.0641
     62 H30        -6.4781  -13.5837   -0.9373 H         1 <0>         0.0668
     63 H31        -5.4575  -14.7287   -0.0342 H         1 <0>         0.0641
     64 H32        -0.7761  -14.7289   -1.7483 H         1 <0>         0.0743
     65 H33        -1.6585  -16.0859   -1.0079 H         1 <0>         0.0676
     66 H34        -1.4735  -16.0037   -2.7763 H         1 <0>         0.0656
@<TRIPOS>BOND
     1    1    2 1
     2    1   37 1
     3    1   38 1
     4    1   39 1
     5    2    3 1
     6    2    9 1
     7    2    4 1
     8    4    5 1
     9    4   40 1
    10    4   41 1
    11    5    6 1
    12    5   11 1
    13    6    7 1
    14    6   42 1
    15    6   43 1
    16    7    8 1
    17    7    9 1
    18    7   10 1
    19   10   44 1
    20   10   45 1
    21   10   46 1
    22   11   16 ar
    23   11   12 ar
    24   12   13 ar
    25   12   47 1
    26   13   14 ar
    27   13   48 1
    28   14   15 ar
    29   14   17 1
    30   15   16 ar
    31   15   49 1
    32   16   50 1
    33   17   18 1
    34   17   51 1
    35   18   19 2
    36   18   20 1
    37   20   21 1
    38   20   52 1
    39   21   26 ar
    40   21   22 ar
    41   22   23 ar
    42   22   53 1
    43   23   24 ar
    44   23   54 1
    45   24   25 ar
    46   24   27 1
    47   25   26 ar
    48   25   55 1
    49   26   56 1
    50   27   34 1
    51   27   28 1
    52   28   29 1
    53   28   57 1
    54   28   58 1
    55   29   30 1
    56   29   31 1
    57   29   36 1
    58   31   32 1
    59   32   33 1
    60   32   34 1
    61   32   35 1
    62   34   59 1
    63   34   60 1
    64   35   61 1
    65   35   62 1
    66   35   63 1
    67   36   64 1
    68   36   65 1
    69   36   66 1
@<TRIPOS>MOLECULE
ZINC26580591
   44    46     0     0     0
SMALL
USER_CHARGES
(5Z)-5-[[4-[(2R)-2-methyl-3-phenoxy-propoxy]phenyl]methylene]-2-thioxo-thiazolidin-4-one
@<TRIPOS>ATOM
      1 C1          5.8637   -1.3889   -0.9287 C.3       1 <0>        -0.1478
      2 C2          6.0204   -0.9027    0.5135 C.3       1 <0>        -0.0890
      3 H1          6.1080   -1.7694    1.1852 H         1 <0>         0.0957
      4 C3          4.7966   -0.0734    0.9079 C.3       1 <0>         0.0654
      5 O1          3.6371   -0.9086    0.9144 O.3       1 <0>        -0.3084
      6 C4          2.4567   -0.3228    1.2464 C.ar      1 <0>         0.1314
      7 C5          1.2911   -1.0747    1.2728 C.ar      1 <0>        -0.1531
      8 C6          0.0924   -0.4770    1.6110 C.ar      1 <0>        -0.0809
      9 C7          0.0538    0.8694    1.9230 C.ar      1 <0>        -0.1605
     10 C8          1.2141    1.6210    1.8975 C.ar      1 <0>        -0.0803
     11 C9          2.4152    1.0280    1.5599 C.ar      1 <0>        -0.2102
     12 C10         7.2791   -0.0403    0.6271 C.3       1 <0>         0.0646
     13 O2          8.4322   -0.8448    0.3719 O.3       1 <0>        -0.3068
     14 C11         9.6401   -0.2278    0.4334 C.ar      1 <0>         0.1343
     15 C12         9.7104    1.1288    0.7286 C.ar      1 <0>        -0.2139
     16 C13        10.9328    1.7583    0.7979 C.ar      1 <0>        -0.0563
     17 C14        12.1060    1.0319    0.5590 C.ar      1 <0>        -0.1017
     18 C15        12.0288   -0.3332    0.2565 C.ar      1 <0>        -0.0621
     19 C16        10.8014   -0.9537    0.1954 C.ar      1 <0>        -0.1452
     20 C17        13.4124    1.6991    0.6261 C.2       1 <0>        -0.0001
     21 C18        14.5314    1.0417    0.2285 C.2       1 <0>        -0.2023
     22 C19        15.9482    1.4429    0.3390 C.2       1 <0>         0.5284
     23 O3         16.2756    2.5005    0.8447 O.3       1 <0>        -0.5037
     24 N1         16.8435    0.5929   -0.1350 N.2       1 <0>        -0.6499
     25 C20        16.4760   -0.5746   -0.7011 C.2       1 <0>         0.3756
     26 S1         17.4753   -1.7917   -1.3725 S.2       1 <0>        -0.5698
     27 S2         14.6948   -0.5443   -0.5800 S.3       1 <0>        -0.1419
     28 H2          6.7435   -1.9851   -1.2123 H         1 <0>         0.0691
     29 H3          5.7761   -0.5222   -1.6003 H         1 <0>         0.0546
     30 H4          4.9588   -2.0089   -1.0103 H         1 <0>         0.0650
     31 H5          4.9488    0.3504    1.9115 H         1 <0>         0.0668
     32 H6          4.6571    0.7420    0.1829 H         1 <0>         0.0680
     33 H7          1.3207   -2.1264    1.0288 H         1 <0>         0.1307
     34 H8         -0.8153   -1.0618    1.6314 H         1 <0>         0.1289
     35 H9         -0.8850    1.3359    2.1828 H         1 <0>         0.1231
     36 H10         1.1812    2.6726    2.1413 H         1 <0>         0.1245
     37 H11         3.3213    1.6154    1.5404 H         1 <0>         0.1275
     38 H12         7.2316    0.7763   -0.1083 H         1 <0>         0.0677
     39 H13         7.3438    0.3823    1.6406 H         1 <0>         0.0663
     40 H14         8.8047    1.6891    0.9080 H         1 <0>         0.1279
     41 H15        10.9866    2.8112    1.0321 H         1 <0>         0.1304
     42 H16        12.9305   -0.8983    0.0717 H         1 <0>         0.1528
     43 H17        10.7407   -2.0066   -0.0375 H         1 <0>         0.1348
     44 H18        13.4842    2.7316    0.9986 H         1 <0>         0.1503
@<TRIPOS>BOND
     1    1    2 1
     2    1   28 1
     3    1   29 1
     4    1   30 1
     5    2    3 1
     6    2    4 1
     7    2   12 1
     8    4    5 1
     9    4   31 1
    10    4   32 1
    11    5    6 1
    12    6   11 ar
    13    6    7 ar
    14    7    8 ar
    15    7   33 1
    16    8    9 ar
    17    8   34 1
    18    9   10 ar
    19    9   35 1
    20   10   11 ar
    21   10   36 1
    22   11   37 1
    23   12   13 1
    24   12   38 1
    25   12   39 1
    26   13   14 1
    27   14   19 ar
    28   14   15 ar
    29   15   16 ar
    30   15   40 1
    31   16   17 ar
    32   16   41 1
    33   17   18 ar
    34   17   20 1
    35   18   19 ar
    36   18   42 1
    37   19   43 1
    38   20   21 2
    39   20   44 1
    40   21   27 1
    41   21   22 1
    42   22   23 1
    43   22   24 2
    44   24   25 1
    45   25   26 2
    46   25   27 1
@<TRIPOS>MOLECULE
ZINC33526422
   46    49     0     0     0
SMALL
USER_CHARGES
(4Z,5R)-4-[(4-chlorophenyl)-hydroxy-methylene]-1-phenethyl-5-(2-thienyl)pyrrolidine-2,3-dione
@<TRIPOS>ATOM
      1 C1          6.8647    0.8640   -3.7968 C.ar      1 <0>        -0.1294
      2 C2          6.1047   -0.2017   -3.3523 C.ar      1 <0>        -0.1195
      3 C3          4.7907   -0.0026   -2.9718 C.ar      1 <0>        -0.1152
      4 C4          4.2368    1.2623   -3.0356 C.ar      1 <0>        -0.0693
      5 C5          4.9953    2.3271   -3.4850 C.ar      1 <0>        -0.1147
      6 C6          6.3107    2.1289   -3.8606 C.ar      1 <0>        -0.1203
      7 C7          2.8043    1.4794   -2.6210 C.3       1 <0>        -0.1135
      8 C8          2.7499    1.8096   -1.1281 C.3       1 <0>         0.1389
      9 N1          1.3573    2.0206   -0.7251 N.am      1 <0>        -0.6024
     10 C9          0.6509    3.3048   -0.7440 C.3       1 <0>         0.2959
     11 H1          1.1808    4.0282   -0.1070 H         1 <0>         0.0847
     12 C10        -0.7507    3.0352   -0.2476 C.2       1 <0>        -0.5001
     13 C11        -1.7672    3.9558   -0.0935 C.2       1 <0>         0.3833
     14 C12        -1.5121    5.3840   -0.3477 C.ar      1 <0>        -0.0582
     15 C13        -0.3857    6.0053    0.2018 C.ar      1 <0>        -0.0892
     16 C14        -0.1510    7.3409   -0.0438 C.ar      1 <0>        -0.1173
     17 C15        -1.0328    8.0706   -0.8251 C.ar      1 <0>        -0.0363
     18 C16        -2.1535    7.4629   -1.3683 C.ar      1 <0>        -0.1135
     19 C17        -2.3982    6.1269   -1.1350 C.ar      1 <0>        -0.0738
     20 Cl1        -0.7324    9.7540   -1.1242 Cl        1 <0>        -0.0869
     21 O1         -2.9954    3.5474    0.2903 O.2       1 <0>        -0.6054
     22 C18        -0.8103    1.6592    0.0253 C.2       1 <0>         0.3787
     23 O2         -1.7812    1.0552    0.4434 O.3       1 <0>        -0.4712
     24 C19         0.5193    1.0670   -0.2852 C.2       1 <0>         0.4781
     25 O3          0.8060   -0.1055   -0.1558 O.2       1 <0>        -0.5251
     26 C20         0.6061    3.8484   -2.1489 C.2       1 <0>        -0.1115
     27 C21         0.8910    5.0979   -2.5901 C.2       1 <0>        -0.1683
     28 C22         0.7832    5.3728   -3.9406 C.2       1 <0>        -0.1452
     29 C23         0.3856    4.3874   -4.7822 C.2       1 <0>        -0.2016
     30 S1          0.1565    3.0157   -3.6628 S.3       1 <0>         0.0486
     31 H2          7.8910    0.7083   -4.0945 H         1 <0>         0.1173
     32 H3          6.5373   -1.1900   -3.3028 H         1 <0>         0.1191
     33 H4          4.1969   -0.8352   -2.6249 H         1 <0>         0.1226
     34 H5          4.5611    3.3146   -3.5390 H         1 <0>         0.1209
     35 H6          6.9044    2.9614   -4.2083 H         1 <0>         0.1187
     36 H7          2.3784    2.3142   -3.1970 H         1 <0>         0.0900
     37 H8          2.2237    0.5656   -2.8158 H         1 <0>         0.0775
     38 H9          3.1758    0.9749   -0.5522 H         1 <0>         0.0821
     39 H10         3.3304    2.7234   -0.9333 H         1 <0>         0.0782
     40 H11         0.3002    5.4389    0.8143 H         1 <0>         0.1343
     41 H12         0.7203    7.8210    0.3767 H         1 <0>         0.1296
     42 H13        -2.8369    8.0377   -1.9757 H         1 <0>         0.1283
     43 H14        -3.2722    5.6546   -1.5588 H         1 <0>         0.1321
     44 H15         1.2003    5.8666   -1.8974 H         1 <0>         0.1287
     45 H16         1.0081    6.3591   -4.3187 H         1 <0>         0.1240
     46 H17         0.2445    4.4229   -5.8523 H         1 <0>         0.1763
@<TRIPOS>BOND
     1    1    6 ar
     2    1    2 ar
     3    1   31 1
     4    2    3 ar
     5    2   32 1
     6    3    4 ar
     7    3   33 1
     8    4    5 ar
     9    4    7 1
    10    5    6 ar
    11    5   34 1
    12    6   35 1
    13    7    8 1
    14    7   36 1
    15    7   37 1
    16    8   38 1
    17    8   39 1
    18    8    9 1
    19    9   24 am
    20    9   10 1
    21   10   12 1
    22   10   26 1
    23   10   11 1
    24   12   22 2
    25   12   13 1
    26   13   21 2
    27   13   14 1
    28   14   19 ar
    29   14   15 ar
    30   15   16 ar
    31   15   40 1
    32   16   17 ar
    33   16   41 1
    34   17   18 ar
    35   17   20 1
    36   18   19 ar
    37   18   42 1
    38   19   43 1
    39   22   24 1
    40   22   23 1
    41   24   25 2
    42   26   30 1
    43   26   27 2
    44   27   28 1
    45   27   44 1
    46   28   29 2
    47   28   45 1
    48   29   30 1
    49   29   46 1
@<TRIPOS>MOLECULE
ZINC40067798
   48    51     0     0     0
SMALL
USER_CHARGES

@<TRIPOS>ATOM
      1 C1          0.9262   -0.3907    0.2568 C.3       1 <0>        -0.1503
      2 C2          0.5400   -1.8692    0.3339 C.3       1 <0>        -0.1204
      3 C3         -0.9817   -2.0039    0.2499 C.3       1 <0>        -0.1389
      4 C4         -1.3678   -3.4824    0.3270 C.3       1 <0>         0.1273
      5 N1         -2.8249   -3.6114    0.2466 N.am      1 <0>        -0.6041
      6 C5         -3.7606   -3.5592    1.3761 C.3       1 <0>         0.2486
      7 H1         -3.6899   -2.5938    1.8773 H         1 <0>         0.0723
      8 C6         -5.1405   -3.7393    0.7877 C.2       1 <0>        -0.4883
      9 C7         -4.9802   -3.8785   -0.5479 C.2       1 <0>         0.2850
     10 C8         -3.5432   -3.7928   -0.8765 C.2       1 <0>         0.5102
     11 O1         -3.0777   -3.8766   -1.9959 O.2       1 <0>        -0.5306
     12 O2         -5.9795   -4.0624   -1.4426 O.3       1 <0>        -0.6038
     13 C9         -6.4103   -3.7601    1.5239 C.2       1 <0>         0.4952
     14 O3         -7.4486   -4.0179    0.9407 O.2       1 <0>        -0.4803
     15 C10        -6.4292   -3.4709    2.9602 C.2       1 <0>        -0.2145
     16 C11        -7.4891   -3.5483    3.8554 C.2       1 <0>        -0.1188
     17 C12        -7.1978   -3.2109    5.1539 C.2       1 <0>        -0.1769
     18 C13        -5.9323   -2.8350    5.4702 C.2       1 <0>        -0.2739
     19 S1         -5.0966   -2.9353    4.0163 S.3       1 <0>         0.2183
     20 C14        -3.4613   -4.6706    2.3488 C.ar      1 <0>        -0.0700
     21 C15        -4.1653   -5.8345    2.2955 C.ar      1 <0>        -0.0854
     22 C16        -3.9028   -6.8732    3.1864 C.ar      1 <0>        -0.1079
     23 C17        -2.9351   -6.7540    4.1363 C.ar      1 <0>        -0.1165
     24 C18        -2.1876   -5.5674    4.2221 C.ar      1 <0>        -0.0530
     25 C19        -2.4504   -4.5132    3.3118 C.ar      1 <0>        -0.0312
     26 C20        -1.6986   -3.3285    3.3940 C.ar      1 <0>        -0.1047
     27 C21        -0.7271   -3.2118    4.3398 C.ar      1 <0>        -0.1228
     28 C22        -0.4643   -4.2510    5.2308 C.ar      1 <0>        -0.1236
     29 C23        -1.1809   -5.4073    5.1897 C.ar      1 <0>        -0.1065
     30 H2          2.0103   -0.2947    0.3167 H         1 <0>         0.0513
     31 H3          0.5759    0.0276   -0.6868 H         1 <0>         0.0534
     32 H4          0.4674    0.1484    1.0857 H         1 <0>         0.0532
     33 H5          0.9988   -2.4082   -0.4949 H         1 <0>         0.0620
     34 H6          0.8903   -2.2874    1.2776 H         1 <0>         0.0626
     35 H7         -1.4405   -1.4648    1.0788 H         1 <0>         0.0643
     36 H8         -1.3319   -1.5856   -0.6937 H         1 <0>         0.0679
     37 H9         -0.9090   -4.0214   -0.5018 H         1 <0>         0.0776
     38 H10        -1.0176   -3.9006    1.2707 H         1 <0>         0.0806
     39 H11        -8.4787   -3.8539    3.5492 H         1 <0>         0.1400
     40 H12        -7.9651   -3.2438    5.9133 H         1 <0>         0.1229
     41 H13        -5.5491   -2.5430    6.4368 H         1 <0>         0.1742
     42 H14        -4.9391   -5.9545    1.5517 H         1 <0>         0.1329
     43 H15        -4.4759   -7.7863    3.1226 H         1 <0>         0.1197
     44 H16        -2.7431   -7.5672    4.8206 H         1 <0>         0.1207
     45 H17        -1.8906   -2.5152    2.7098 H         1 <0>         0.1273
     46 H18        -0.1509   -2.3004    4.4008 H         1 <0>         0.1181
     47 H19         0.3125   -4.1326    5.9717 H         1 <0>         0.1161
     48 H20        -0.9666   -6.2037    5.8871 H         1 <0>         0.1203
@<TRIPOS>BOND
     1    1    2 1
     2    1   30 1
     3    1   31 1
     4    1   32 1
     5    2    3 1
     6    2   33 1
     7    2   34 1
     8    3    4 1
     9    3   35 1
    10    3   36 1
    11    4    5 1
    12    4   37 1
    13    4   38 1
    14    5   10 am
    15    5    6 1
    16    6    7 1
    17    6    8 1
    18    6   20 1
    19    8    9 2
    20    8   13 1
    21    9   10 1
    22    9   12 1
    23   10   11 2
    24   13   14 2
    25   13   15 1
    26   15   19 1
    27   15   16 2
    28   16   17 1
    29   16   39 1
    30   17   18 2
    31   17   40 1
    32   18   19 1
    33   18   41 1
    34   20   25 ar
    35   20   21 ar
    36   21   22 ar
    37   21   42 1
    38   22   23 ar
    39   22   43 1
    40   23   24 ar
    41   23   44 1
    42   24   29 ar
    43   24   25 ar
    44   25   26 ar
    45   26   27 ar
    46   26   45 1
    47   27   28 ar
    48   27   46 1
    49   28   29 ar
    50   28   47 1
    51   29   48 1
@<TRIPOS>MOLECULE
ZINC48441197
   27    28     0     0     0
SMALL
USER_CHARGES

@<TRIPOS>ATOM
      1 C1         -0.0168    1.3840    0.0097 C.ar      1 <0>        -0.1522
      2 C2          1.1702    2.0916    0.0021 C.ar      1 <0>        -0.1137
      3 C3          2.3804    1.4164   -0.0135 C.ar      1 <0>        -0.0430
      4 C4          2.4013    0.0273   -0.0212 C.ar      1 <0>         0.1463
      5 C5          1.2144   -0.6816   -0.0132 C.ar      1 <0>        -0.2762
      6 C6          0.0021   -0.0041    0.0020 C.ar      1 <0>         0.2895
      7 N1         -1.1999   -0.7204    0.0101 N.2       1 <0>        -1.0773
      8 S1         -1.1771   -2.3762    0.0010 S.o2      1 <0>         2.6277
      9 O1         -0.6332   -2.7680   -1.2519 O.2       1 <0>        -1.0124
     10 O2         -0.6084   -2.7813    1.2386 O.2       1 <0>        -1.0142
     11 C7         -2.8530   -2.9204    0.0148 C.2       1 <0>        -0.6569
     12 C8         -3.6733   -3.1835   -1.0314 C.2       1 <0>        -0.0454
     13 C9         -4.9662   -3.6041   -0.7806 C.2       1 <0>        -0.1320
     14 C10        -5.3749   -3.7407    0.5054 C.2       1 <0>        -0.1746
     15 S2         -3.9080   -3.2755    1.4104 S.3       1 <0>         0.2114
     16 Br1        -7.0591   -4.2890    1.1679 Br        1 <0>         0.0359
     17 F1          3.5812   -0.6307   -0.0369 F         1 <0>        -0.1434
     18 O3          3.5484    2.1141   -0.0219 O.3       1 <0>        -0.3207
     19 C11         3.4524    3.5399   -0.0137 C.3       1 <0>         0.4121
     20 F2          2.7516    3.9666   -1.1468 F         1 <0>        -0.2040
     21 F3          2.7747    3.9551    1.1376 F         1 <0>        -0.2039
     22 H1         -0.9593    1.9110    0.0260 H         1 <0>         0.1284
     23 H2          1.1548    3.1715    0.0081 H         1 <0>         0.1289
     24 H3          1.2299   -1.7614   -0.0196 H         1 <0>         0.1194
     25 H4         -3.3223   -3.0661   -2.0460 H         1 <0>         0.1531
     26 H5         -5.6404   -3.8201   -1.5962 H         1 <0>         0.1455
     27 H6          4.4533    3.9714   -0.0216 H         1 <0>         0.1716
@<TRIPOS>BOND
     1    1    6 ar
     2    1    2 ar
     3    1   22 1
     4    2    3 ar
     5    2   23 1
     6    3    4 ar
     7    3   18 1
     8    4    5 ar
     9    4   17 1
    10    5    6 ar
    11    5   24 1
    12    6    7 1
    13    7    8 1
    14    8    9 2
    15    8   10 2
    16    8   11 1
    17   11   15 1
    18   11   12 2
    19   12   13 1
    20   12   25 1
    21   13   14 2
    22   13   26 1
    23   14   15 1
    24   14   16 1
    25   18   19 1
    26   19   20 1
    27   19   21 1
    28   19   27 1
@<TRIPOS>MOLECULE
ZINC46928966
   41    43     0     0     0
SMALL
USER_CHARGES

@<TRIPOS>ATOM
      1 C1         -0.2280    0.9335   -0.2333 C.ar      1 <0>        -0.1300
      2 C2          0.8504    1.7553    0.0359 C.ar      1 <0>        -0.1253
      3 C3          2.1251    1.2244    0.0994 C.ar      1 <0>        -0.1121
      4 C4          2.3214   -0.1285   -0.1058 C.ar      1 <0>        -0.0488
      5 C5          1.2429   -0.9505   -0.3742 C.ar      1 <0>        -0.1035
      6 C6         -0.0317   -0.4193   -0.4391 C.ar      1 <0>        -0.1223
      7 C7          3.7112   -0.7071   -0.0376 C.3       1 <0>         0.0168
      8 C8          3.8699   -1.4828    1.2447 C.ar      1 <0>        -0.0461
      9 C9          3.0119   -2.5282    1.5308 C.ar      1 <0>        -0.0593
     10 C10         3.1575   -3.2398    2.7070 C.ar      1 <0>        -0.1341
     11 C11         4.1614   -2.9062    3.5968 C.ar      1 <0>        -0.1293
     12 C12         5.0200   -1.8613    3.3103 C.ar      1 <0>        -0.1323
     13 C13         4.8770   -1.1526    2.1321 C.ar      1 <0>        -0.1176
     14 C14         3.9307   -1.6265   -1.2113 C.2       1 <0>         0.5042
     15 O1          4.3380   -1.1236   -2.3952 O.3       1 <0>        -0.7125
     16 N1          3.7292   -2.8947   -1.0840 N.2       1 <0>        -1.0455
     17 S1          3.9705   -3.9049   -2.3738 S.o2      1 <0>         2.6431
     18 O2          2.9881   -3.5673   -3.3434 O.2       1 <0>        -0.9960
     19 O3          5.3626   -3.8758   -2.6576 O.2       1 <0>        -0.9895
     20 C15         3.6013   -5.5401   -1.8310 C.ar      1 <0>        -0.6473
     21 C16         2.5358   -6.2269   -2.3815 C.ar      1 <0>        -0.0338
     22 C17         2.2460   -7.5117   -1.9554 C.ar      1 <0>         0.0610
     23 C18         3.0237   -8.1087   -0.9776 C.ar      1 <0>        -0.0848
     24 C19         4.0889   -7.4221   -0.4273 C.ar      1 <0>        -0.1514
     25 C20         4.3820   -6.1389   -0.8572 C.ar      1 <0>         0.1960
     26 F1          5.4266   -5.4694   -0.3227 F         1 <0>        -0.1084
     27 F2          1.2042   -8.1829   -2.4933 F         1 <0>        -0.1357
     28 H1         -1.2245    1.3476   -0.2785 H         1 <0>         0.1152
     29 H2          0.6970    2.8123    0.1963 H         1 <0>         0.1171
     30 H3          2.9677    1.8666    0.3091 H         1 <0>         0.1202
     31 H4          1.3963   -2.0073   -0.5353 H         1 <0>         0.1344
     32 H5         -0.8743   -1.0614   -0.6492 H         1 <0>         0.1183
     33 H6          4.4428    0.1003   -0.0667 H         1 <0>         0.0981
     34 H7          2.2276   -2.7889    0.8356 H         1 <0>         0.1310
     35 H8          2.4868   -4.0561    2.9308 H         1 <0>         0.1121
     36 H9          4.2747   -3.4616    4.5161 H         1 <0>         0.1101
     37 H10         5.8040   -1.6005    4.0057 H         1 <0>         0.1126
     38 H11         5.5501   -0.3386    1.9065 H         1 <0>         0.1156
     39 H12         1.9290   -5.7611   -3.1439 H         1 <0>         0.1609
     40 H13         2.7975   -9.1110   -0.6449 H         1 <0>         0.1481
     41 H14         4.6952   -7.8877    0.3357 H         1 <0>         0.1507
@<TRIPOS>BOND
     1    1    6 ar
     2    1    2 ar
     3    1   28 1
     4    2    3 ar
     5    2   29 1
     6    3    4 ar
     7    3   30 1
     8    4    5 ar
     9    4    7 1
    10    5    6 ar
    11    5   31 1
    12    6   32 1
    13    7    8 1
    14    7   14 1
    15    7   33 1
    16    8   13 ar
    17    8    9 ar
    18    9   10 ar
    19    9   34 1
    20   10   11 ar
    21   10   35 1
    22   11   12 ar
    23   11   36 1
    24   12   13 ar
    25   12   37 1
    26   13   38 1
    27   14   15 1
    28   14   16 2
    29   16   17 1
    30   17   18 2
    31   17   19 2
    32   17   20 1
    33   20   25 ar
    34   20   21 ar
    35   21   22 ar
    36   21   39 1
    37   22   23 ar
    38   22   27 1
    39   23   24 ar
    40   23   40 1
    41   24   25 ar
    42   24   41 1
    43   25   26 1
@<TRIPOS>MOLECULE
ZINC19648079
   66    68     0     0     0
SMALL
USER_CHARGES
(3S)-5-[[(6R)-6-tert-butyl-3-(cyclopentylcarbamoyl)-4,5,6,7-tetrahydrobenzothiophen-2-yl]amino]-3-methyl-5-oxo-pentanoic acid
@<TRIPOS>ATOM
      1 C1         -8.2815   -2.0165    2.0965 C.3       1 <0>        -0.1532
      2 C2         -7.7750   -0.5738    2.0410 C.3       1 <0>        -0.0561
      3 H1         -7.6966   -0.1731    3.0624 H         1 <0>         0.0803
      4 C3         -6.3986   -0.5418    1.3736 C.3       1 <0>        -0.1323
      5 C4         -5.4058   -1.2801    2.2340 C.2       1 <0>         0.5100
      6 O1         -5.7638   -1.7824    3.2782 O.2       1 <0>        -0.4867
      7 N1         -4.1200   -1.3822    1.8431 N.am      1 <0>        -0.6405
      8 C5         -3.2065   -2.0615    2.6348 C.2       1 <0>         0.0957
      9 C6         -1.8543   -2.2715    2.4045 C.2       1 <0>        -0.2446
     10 C7         -1.1108   -3.0183    3.4047 C.2       1 <0>        -0.0624
     11 C8         -1.8347   -3.4381    4.4650 C.2       1 <0>        -0.2215
     12 S1         -3.4769   -2.8563    4.1505 S.3       1 <0>         0.2221
     13 C9         -1.3419   -4.2230    5.6414 C.3       1 <0>        -0.0314
     14 C10         0.0342   -4.8074    5.2908 C.3       1 <0>        -0.0684
     15 H2         -0.0778   -5.6285    4.5674 H         1 <0>         0.0752
     16 C11         0.9020   -3.6989    4.6882 C.3       1 <0>        -0.1144
     17 C12         0.3782   -3.3246    3.3005 C.3       1 <0>        -0.0575
     18 C13         0.6997   -5.3480    6.5580 C.3       1 <0>        -0.0623
     19 C14         0.8565   -4.2154    7.5746 C.3       1 <0>        -0.1489
     20 C15        -0.1693   -6.4552    7.1579 C.3       1 <0>        -0.1469
     21 C16         2.0775   -5.9140    6.2086 C.3       1 <0>        -0.1453
     22 C17        -1.1989   -1.7536    1.1995 C.2       1 <0>         0.5867
     23 O2         -1.1479   -2.4365    0.1933 O.2       1 <0>        -0.5398
     24 N2         -0.6528   -0.5215    1.2060 N.am      1 <0>        -0.7324
     25 C18         0.0021   -0.0041    0.0020 C.3       1 <0>         0.1364
     26 C19        -0.0188    1.5345    0.0105 C.3       1 <0>        -0.1318
     27 C20         1.4534    1.9953   -0.0011 C.3       1 <0>        -0.1264
     28 C21         2.2325    0.7924    0.5864 C.3       1 <0>        -0.1179
     29 C22         1.4862   -0.4246   -0.0144 C.3       1 <0>        -0.1276
     30 C23        -8.7539    0.2796    1.2323 C.3       1 <0>        -0.1550
     31 C24       -10.0752    0.3484    1.9538 C.2       1 <0>         0.4606
     32 O3        -10.2190   -0.2262    3.0069 O.co2     1 <0>        -0.6323
     33 O4        -11.0922    1.0481    1.4267 O.co2     1 <0>        -0.7786
     34 H3         -9.2711   -2.0395    2.5763 H         1 <0>         0.0848
     35 H4         -7.5777   -2.6301    2.6780 H         1 <0>         0.0560
     36 H5         -8.3599   -2.4171    1.0750 H         1 <0>         0.0322
     37 H6         -6.4584   -1.0239    0.3867 H         1 <0>         0.0973
     38 H7         -6.0739    0.5022    1.2526 H         1 <0>         0.0967
     39 H8         -3.7952   -0.9266    0.8960 H         1 <0>         0.4413
     40 H9         -1.2581   -3.5602    6.5153 H         1 <0>         0.0847
     41 H10        -2.0503   -5.0347    5.8634 H         1 <0>         0.0786
     42 H11         0.8696   -2.8130    5.3395 H         1 <0>         0.0680
     43 H12         1.9401   -4.0523    4.6012 H         1 <0>         0.0713
     44 H13         0.5323   -4.1628    2.6050 H         1 <0>         0.0739
     45 H14         0.9100   -2.4367    2.9281 H         1 <0>         0.0690
     46 H15         1.3350   -4.6041    8.4856 H         1 <0>         0.0527
     47 H16        -0.1341   -3.8084    7.8257 H         1 <0>         0.0602
     48 H17         1.4814   -3.4195    7.1433 H         1 <0>         0.0578
     49 H18         0.3092   -6.8438    8.0689 H         1 <0>         0.0538
     50 H19        -0.2819   -7.2695    6.4270 H         1 <0>         0.0550
     51 H20        -1.1599   -6.0483    7.4091 H         1 <0>         0.0592
     52 H21         2.5560   -6.3027    7.1196 H         1 <0>         0.0536
     53 H22         2.7023   -5.1180    5.7773 H         1 <0>         0.0588
     54 H23         1.9648   -6.7283    5.4777 H         1 <0>         0.0545
     55 H24        -0.6988    0.0956    2.1154 H         1 <0>         0.4175
     56 H25        -0.5665   -0.4267   -0.8395 H         1 <0>         0.0890
     57 H26        -0.5508    1.8989   -0.8807 H         1 <0>         0.0738
     58 H27        -0.5337    1.8892    0.9155 H         1 <0>         0.0726
     59 H28         1.7590    2.2205   -1.0335 H         1 <0>         0.0670
     60 H29         1.5599    2.8982    0.6181 H         1 <0>         0.0667
     61 H30         3.2840    0.8456    0.2677 H         1 <0>         0.0659
     62 H31         2.1803    0.8229    1.6847 H         1 <0>         0.0669
     63 H32         1.6172   -1.3311    0.5948 H         1 <0>         0.0692
     64 H33         1.7977   -0.6301   -1.0492 H         1 <0>         0.0731
     65 H34        -8.3462    1.2946    1.1163 H         1 <0>         0.0623
     66 H35        -8.9010   -0.1720    0.2401 H         1 <0>         0.0638
@<TRIPOS>BOND
     1    1    2 1
     2    1   34 1
     3    1   35 1
     4    1   36 1
     5    2    3 1
     6    2    4 1
     7    2   30 1
     8    4    5 1
     9    4   37 1
    10    4   38 1
    11    5    6 2
    12    5    7 am
    13    7    8 1
    14    7   39 1
    15    8   12 1
    16    8    9 2
    17    9   10 1
    18    9   22 1
    19   10   17 1
    20   10   11 2
    21   11   12 1
    22   11   13 1
    23   13   14 1
    24   13   40 1
    25   13   41 1
    26   14   15 1
    27   14   16 1
    28   14   18 1
    29   16   17 1
    30   16   42 1
    31   16   43 1
    32   17   44 1
    33   17   45 1
    34   18   19 1
    35   18   20 1
    36   18   21 1
    37   19   46 1
    38   19   47 1
    39   19   48 1
    40   20   49 1
    41   20   50 1
    42   20   51 1
    43   21   52 1
    44   21   53 1
    45   21   54 1
    46   22   23 2
    47   22   24 am
    48   24   25 1
    49   24   55 1
    50   25   29 1
    51   25   26 1
    52   25   56 1
    53   26   27 1
    54   26   57 1
    55   26   58 1
    56   27   28 1
    57   27   59 1
    58   27   60 1
    59   28   29 1
    60   28   61 1
    61   28   62 1
    62   29   63 1
    63   29   64 1
    64   30   31 1
    65   30   65 1
    66   30   66 1
    67   31   32 2
    68   31   33 1
@<TRIPOS>MOLECULE
ZINC34923639
   57    60     0     0     0
SMALL
USER_CHARGES

@<TRIPOS>ATOM
      1 C1          0.1163    1.5705   -0.2131 C.3       1 <0>        -0.0926
      2 C2          0.0360    0.0667   -0.2679 C.2       1 <0>         0.3024
      3 C3         -1.1891   -0.5600   -0.1432 C.2       1 <0>        -0.3920
      4 C4         -1.2178   -2.0709   -0.2052 C.3       1 <0>         0.2601
      5 H1         -1.6600   -2.4364    0.7216 H         1 <0>         0.0766
      6 N1          0.0834   -2.7652   -0.3967 N.pl3     1 <0>        -0.5141
      7 C5          0.2940   -4.1270   -0.4823 C.2       1 <0>         0.2279
      8 C6          1.5635   -4.5551   -0.6587 C.2       1 <0>        -0.2979
      9 S1          2.4672   -3.0203   -0.7039 S.3       1 <0>         0.1478
     10 C7          1.1829   -1.9595   -0.4980 C.2       1 <0>         0.3206
     11 N2          1.1383   -0.6443   -0.4406 N.2       1 <0>        -0.5946
     12 C8         -0.8230   -5.0775   -0.3847 C.2       1 <0>        -0.4554
     13 C9         -0.5782   -6.4006   -0.3251 C.2       1 <0>         0.5026
     14 O1          0.6963   -6.8499   -0.2222 O.3       1 <0>        -0.6995
     15 N3         -1.6286   -7.3017   -0.3690 N.pl3     1 <0>        -0.6412
     16 C10        -2.9367   -6.9550    0.2032 C.3       1 <0>         0.1336
     17 C11        -3.3473   -8.0491    1.1937 C.3       1 <0>        -0.1364
     18 C12        -3.3088   -9.4082    0.4912 C.3       1 <0>        -0.0936
     19 C13        -1.8836   -9.6979    0.0149 C.3       1 <0>        -0.1261
     20 H2         -1.2057   -9.6886    0.8684 H         1 <0>         0.0978
     21 C14        -1.4581   -8.6204   -0.9940 C.3       1 <0>         0.1530
     22 C15        -1.8399  -11.0509   -0.6474 C.2       1 <0>         0.5266
     23 O2         -2.8701  -11.6514   -0.8686 O.2       1 <0>        -0.5505
     24 N4         -0.6559  -11.5937   -0.9939 N.am      1 <0>        -0.8562
     25 C16        -2.1276   -2.4715   -1.3378 C.ar      1 <0>        -0.0662
     26 C17        -1.7142   -2.3086   -2.6469 C.ar      1 <0>        -0.0816
     27 C18        -2.5481   -2.6758   -3.6861 C.ar      1 <0>        -0.1120
     28 C19        -3.7969   -3.2066   -3.4160 C.ar      1 <0>        -0.0314
     29 C20        -4.2101   -3.3695   -2.1057 C.ar      1 <0>        -0.1120
     30 C21        -3.3730   -3.0071   -1.0673 C.ar      1 <0>        -0.0654
     31 Cl1        -4.8452   -3.6676   -4.7207 Cl        1 <0>        -0.0843
     32 C22        -2.3649    0.1790    0.0351 C.2       1 <0>         0.5343
     33 O3         -2.3184    1.3960    0.0826 O.2       1 <0>        -0.5482
     34 O4         -3.5512   -0.4570    0.1546 O.3       1 <0>        -0.3574
     35 C23        -4.7100    0.3597    0.3342 C.3       1 <0>         0.0414
     36 H3          1.1534    1.8836   -0.3330 H         1 <0>         0.0646
     37 H4         -0.4867    1.9961   -1.0152 H         1 <0>         0.0867
     38 H5         -0.2598    1.9197    0.7485 H         1 <0>         0.0869
     39 H6          1.9342   -5.5655   -0.7484 H         1 <0>         0.2331
     40 H7         -1.8401   -4.7149   -0.3607 H         1 <0>         0.0963
     41 H8         -2.8666   -5.9993    0.7227 H         1 <0>         0.0767
     42 H9         -3.6775   -6.8866   -0.5934 H         1 <0>         0.0476
     43 H10        -2.6556   -8.0553    2.0362 H         1 <0>         0.0639
     44 H11        -4.3576   -7.8539    1.5533 H         1 <0>         0.0689
     45 H12        -3.6242  -10.1857    1.1870 H         1 <0>         0.0620
     46 H13        -3.9821   -9.3932   -0.3658 H         1 <0>         0.0685
     47 H14        -2.0807   -8.6851   -1.8863 H         1 <0>         0.0482
     48 H15        -0.4120   -8.7639   -1.2647 H         1 <0>         0.0861
     49 H16         0.1711  -11.1469   -0.7544 H         1 <0>         0.4053
     50 H17        -0.6308  -12.4311   -1.4828 H         1 <0>         0.3972
     51 H18        -0.7395   -1.8939   -2.8576 H         1 <0>         0.1145
     52 H19        -2.2252   -2.5482   -4.7087 H         1 <0>         0.1263
     53 H20        -5.1850   -3.7835   -1.8943 H         1 <0>         0.1287
     54 H21        -3.6936   -3.1386   -0.0444 H         1 <0>         0.1288
     55 H22        -4.6011    0.9498    1.2441 H         1 <0>         0.0517
     56 H23        -4.8203    1.0270   -0.5206 H         1 <0>         0.0515
     57 H24        -5.5926   -0.2748    0.4160 H         1 <0>         0.0903
@<TRIPOS>BOND
     1    1    2 1
     2    1   36 1
     3    1   37 1
     4    1   38 1
     5    2   11 1
     6    2    3 2
     7    3    4 1
     8    3   32 1
     9    4    5 1
    10    4    6 1
    11    4   25 1
    12    6   10 1
    13    6    7 1
    14    7    8 2
    15    7   12 1
    16    8    9 1
    17    8   39 1
    18    9   10 1
    19   10   11 2
    20   12   13 2
    21   12   40 1
    22   13   14 1
    23   13   15 1
    24   15   21 1
    25   15   16 1
    26   16   17 1
    27   16   41 1
    28   16   42 1
    29   17   18 1
    30   17   43 1
    31   17   44 1
    32   18   19 1
    33   18   45 1
    34   18   46 1
    35   19   20 1
    36   19   21 1
    37   19   22 1
    38   21   47 1
    39   21   48 1
    40   22   23 2
    41   22   24 am
    42   24   49 1
    43   24   50 1
    44   25   30 ar
    45   25   26 ar
    46   26   27 ar
    47   26   51 1
    48   27   28 ar
    49   27   52 1
    50   28   29 ar
    51   28   31 1
    52   29   30 ar
    53   29   53 1
    54   30   54 1
    55   32   33 2
    56   32   34 1
    57   34   35 1
    58   35   55 1
    59   35   56 1
    60   35   57 1
@<TRIPOS>MOLECULE
ZINC39679539
   62    65     0     0     0
SMALL
USER_CHARGES

@<TRIPOS>ATOM
      1 C1         -0.0193    1.5649    0.0427 C.3       1 <0>        -0.1503
      2 C2          0.0069    0.0352    0.0240 C.3       1 <0>         0.0550
      3 O1          0.6965   -0.4436    1.1804 O.3       1 <0>        -0.3437
      4 C3          0.8087   -1.7804    1.3165 C.2       1 <0>         0.5340
      5 O2          0.3337   -2.5191    0.4756 O.2       1 <0>        -0.4870
      6 C4          1.5040   -2.3436    2.4793 C.2       1 <0>        -0.2476
      7 C5          0.8197   -2.6495    3.6480 C.2       1 <0>         0.0457
      8 C6          1.5666   -3.1706    4.6700 C.2       1 <0>        -0.3412
      9 S1          3.2051   -3.2200    3.9731 S.3       1 <0>         0.3404
     10 C7          2.8767   -2.5967    2.4485 C.2       1 <0>         0.0990
     11 N1          3.7592   -2.3820    1.4079 N.am      1 <0>        -0.6123
     12 C8          5.0634   -2.6882    1.5563 C.2       1 <0>         0.5295
     13 O3          5.4619   -3.1520    2.6034 O.2       1 <0>        -0.5023
     14 C9          6.0263   -2.4540    0.4209 C.3       1 <0>        -0.0941
     15 H1          6.0364   -1.4010    0.1395 H         1 <0>         0.1244
     16 C10         7.4613   -2.9321    0.8105 C.3       1 <0>        -0.0474
     17 H2          7.8105   -2.6515    1.8041 H         1 <0>         0.1026
     18 C11         7.3373   -4.4718    0.5153 C.3       1 <0>        -0.1233
     19 C12         6.9225   -4.2438   -0.9843 C.3       1 <0>        -0.0519
     20 H3          6.8035   -5.1357   -1.5996 H         1 <0>         0.1002
     21 C13         5.6591   -3.3389   -0.7955 C.3       1 <0>        -0.1476
     22 H4          4.7809   -3.9462   -0.5763 H         1 <0>         0.0693
     23 C14         5.4255   -2.4888   -2.0177 C.2       1 <0>         0.5054
     24 O4          5.6639   -2.9367   -3.1264 O.co2     1 <0>        -0.6828
     25 O5          4.9981   -1.3533   -1.8979 O.co2     1 <0>        -0.6962
     26 C15         8.0211   -3.2634   -1.4129 C.2       1 <0>        -0.1149
     27 C16         8.3355   -2.4877   -0.3686 C.2       1 <0>        -0.2014
     28 C17         1.1278   -3.5840    6.0042 C.2       1 <0>         0.6192
     29 O6         -0.0435   -3.4800    6.3192 O.2       1 <0>        -0.5097
     30 N2          2.0207   -4.0796    6.8837 N.am      1 <0>        -0.6672
     31 C18         1.6261   -4.3663    8.1943 C.ar      1 <0>         0.1490
     32 C19         0.5405   -3.7051    8.7547 C.ar      1 <0>        -0.1225
     33 C20         0.1534   -3.9905   10.0491 C.ar      1 <0>        -0.1049
     34 C21         0.8452   -4.9334   10.7875 C.ar      1 <0>        -0.1052
     35 C22         1.9262   -5.5932   10.2327 C.ar      1 <0>        -0.1006
     36 C23         2.3151   -5.3166    8.9364 C.ar      1 <0>        -0.1129
     37 C24         3.4892   -6.0411    8.3302 C.3       1 <0>        -0.1183
     38 C25         0.4203   -5.2419   12.2000 C.3       1 <0>        -0.1108
     39 C26        -0.6635   -2.4201    3.7840 C.3       1 <0>        -0.1123
     40 H5          1.0020    1.9458    0.0404 H         1 <0>         0.0694
     41 H6         -0.5453    1.9300   -0.8394 H         1 <0>         0.0796
     42 H7         -0.5333    1.9085    0.9404 H         1 <0>         0.0643
     43 H8         -1.0144   -0.3457    0.0263 H         1 <0>         0.0671
     44 H9          0.5208   -0.3084   -0.8737 H         1 <0>         0.0738
     45 H10         3.4404   -2.0110    0.5702 H         1 <0>         0.4343
     46 H11         8.2898   -4.9932    0.6104 H         1 <0>         0.0734
     47 H12         6.5488   -4.9467    1.0991 H         1 <0>         0.0699
     48 H13         8.4651   -3.2026   -2.3955 H         1 <0>         0.1239
     49 H14         9.0739   -1.6999   -0.3455 H         1 <0>         0.1271
     50 H15         2.9371   -4.2375    6.6077 H         1 <0>         0.4096
     51 H16         0.0000   -2.9685    8.1788 H         1 <0>         0.1475
     52 H17        -0.6903   -3.4766   10.4855 H         1 <0>         0.1234
     53 H18         2.4643   -6.3289   10.8119 H         1 <0>         0.1240
     54 H19         4.4041   -5.4846    8.5338 H         1 <0>         0.0730
     55 H20         3.5655   -7.0375    8.7656 H         1 <0>         0.0723
     56 H21         3.3473   -6.1253    7.2528 H         1 <0>         0.0642
     57 H22        -0.3103   -6.0508   12.1912 H         1 <0>         0.0675
     58 H23         1.2900   -5.5442   12.7833 H         1 <0>         0.0637
     59 H24        -0.0263   -4.3538   12.6472 H         1 <0>         0.0643
     60 H25        -1.2002   -3.3131    3.4637 H         1 <0>         0.0818
     61 H26        -0.9040   -2.2056    4.8252 H         1 <0>         0.0979
     62 H27        -0.9592   -1.5756    3.1614 H         1 <0>         0.0627
@<TRIPOS>BOND
     1    1    2 1
     2    1   40 1
     3    1   41 1
     4    1   42 1
     5    2    3 1
     6    2   43 1
     7    2   44 1
     8    3    4 1
     9    4    5 2
    10    4    6 1
    11    6   10 2
    12    6    7 1
    13    7    8 2
    14    7   39 1
    15    8    9 1
    16    8   28 1
    17    9   10 1
    18   10   11 1
    19   11   12 am
    20   11   45 1
    21   12   13 2
    22   12   14 1
    23   14   15 1
    24   14   21 1
    25   14   16 1
    26   16   17 1
    27   16   27 1
    28   16   18 1
    29   18   19 1
    30   18   46 1
    31   18   47 1
    32   19   20 1
    33   19   21 1
    34   19   26 1
    35   21   22 1
    36   21   23 1
    37   23   24 2
    38   23   25 1
    39   26   27 2
    40   26   48 1
    41   27   49 1
    42   28   29 2
    43   28   30 am
    44   30   31 1
    45   30   50 1
    46   31   36 ar
    47   31   32 ar
    48   32   33 ar
    49   32   51 1
    50   33   34 ar
    51   33   52 1
    52   34   35 ar
    53   34   38 1
    54   35   36 ar
    55   35   53 1
    56   36   37 1
    57   37   54 1
    58   37   55 1
    59   37   56 1
    60   38   57 1
    61   38   58 1
    62   38   59 1
    63   39   60 1
    64   39   61 1
    65   39   62 1
@<TRIPOS>MOLECULE
ZINC44390147
   53    57     0     0     0
SMALL
USER_CHARGES

@<TRIPOS>ATOM
      1 C1         -0.0167    1.3790    0.0096 C.ar      1 <0>        -0.1193
      2 C2          1.1687    2.0919    0.0021 C.ar      1 <0>        -0.1248
      3 C3          2.3774    1.4259   -0.0130 C.ar      1 <0>        -0.0915
      4 C4          2.4022    0.0327   -0.0207 C.ar      1 <0>        -0.0019
      5 C5          1.2051   -0.6804   -0.0131 C.ar      1 <0>        -0.0924
      6 C6          0.0021   -0.0041    0.0020 C.ar      1 <0>        -0.1243
      7 C7          3.6987   -0.6889   -0.0375 C.2       1 <0>         0.1137
      8 C8          3.8651   -2.0874   -0.0524 C.2       1 <0>        -0.2726
      9 C9          5.1980   -2.3472   -0.0657 C.2       1 <0>         0.3602
     10 N1          5.8525   -1.1511   -0.0595 N.pl3     1 <0>        -0.3086
     11 N2          4.8912   -0.1325   -0.0468 N.2       1 <0>        -0.2391
     12 C10         7.2344   -0.9733   -0.0687 C.ar      1 <0>         0.5734
     13 N3          8.0209   -2.0376   -0.0904 N.ar      1 <0>        -0.6376
     14 C11         9.3414   -1.9017   -0.1000 C.ar      1 <0>         0.4754
     15 O1         10.1449   -2.9927   -0.1227 O.3       1 <0>        -0.6871
     16 C12         9.8891   -0.6197   -0.0869 C.ar      1 <0>        -0.3136
     17 C13         9.0351    0.4649   -0.0644 C.ar      1 <0>         0.1741
     18 N4          7.7259    0.2549   -0.0609 N.ar      1 <0>        -0.5786
     19 C14         9.8373    1.7466   -0.0538 C.3       1 <0>        -0.0602
     20 C15        11.2632    1.3278    0.3649 C.3       1 <0>        -0.1183
     21 C16        11.3236   -0.1458   -0.0927 C.3       1 <0>        -0.0424
     22 N5          5.7903   -3.6091   -0.0821 N.am      1 <0>        -0.6476
     23 C17         5.0200   -4.7151   -0.0862 C.2       1 <0>         0.7138
     24 O2          3.8085   -4.6122   -0.0757 O.2       1 <0>        -0.5725
     25 N6          5.5926   -5.9351   -0.1019 N.am      1 <0>        -0.7367
     26 C18         4.7553   -7.1372   -0.1064 C.3       1 <0>         0.1820
     27 C19         5.6340   -8.3613   -0.1246 C.ar      1 <0>        -0.1040
     28 C20         6.0321   -8.9082   -1.3303 C.ar      1 <0>        -0.0842
     29 C21         6.8380  -10.0310   -1.3476 C.ar      1 <0>        -0.1128
     30 C22         7.2463  -10.6075   -0.1581 C.ar      1 <0>        -0.0270
     31 C23         6.8476  -10.0597    1.0482 C.ar      1 <0>        -0.1128
     32 C24         6.0463   -8.9336    1.0643 C.ar      1 <0>        -0.0842
     33 Cl1         8.2581  -12.0180   -0.1791 Cl        1 <0>        -0.0712
     34 H1         -0.9603    1.9042    0.0260 H         1 <0>         0.1191
     35 H2          1.1483    3.1717    0.0078 H         1 <0>         0.1222
     36 H3          3.3023    1.9834   -0.0192 H         1 <0>         0.1314
     37 H4          1.2186   -1.7603   -0.0194 H         1 <0>         0.1307
     38 H5         -0.9264   -0.5558    0.0079 H         1 <0>         0.1232
     39 H6          3.0737   -2.8223   -0.0527 H         1 <0>         0.1816
     40 H7          9.8508    2.1924   -1.0484 H         1 <0>         0.0814
     41 H8          9.4210    2.4473    0.6699 H         1 <0>         0.0762
     42 H9         12.0112    1.9261   -0.1553 H         1 <0>         0.0726
     43 H10        11.3877    1.4035    1.4451 H         1 <0>         0.0678
     44 H11        11.9194   -0.7345    0.6049 H         1 <0>         0.0637
     45 H12        11.7402   -0.2131   -1.0977 H         1 <0>         0.0615
     46 H13         6.7568   -3.6912   -0.0904 H         1 <0>         0.4332
     47 H14         6.5591   -6.0171   -0.1103 H         1 <0>         0.4049
     48 H15         4.1330   -7.1499    0.7884 H         1 <0>         0.0801
     49 H16         4.1190   -7.1335   -0.9914 H         1 <0>         0.0801
     50 H17         5.7130   -8.4583   -2.2588 H         1 <0>         0.1361
     51 H18         7.1486  -10.4583   -2.2896 H         1 <0>         0.1354
     52 H19         7.1658  -10.5095    1.9771 H         1 <0>         0.1354
     53 H20         5.7389   -8.5031    2.0059 H         1 <0>         0.1361
@<TRIPOS>BOND
     1    1    6 ar
     2    1    2 ar
     3    1   34 1
     4    2    3 ar
     5    2   35 1
     6    3    4 ar
     7    3   36 1
     8    4    5 ar
     9    4    7 1
    10    5    6 ar
    11    5   37 1
    12    6   38 1
    13    7   11 2
    14    7    8 1
    15    8    9 2
    16    8   39 1
    17    9   10 1
    18    9   22 1
    19   10   11 1
    20   10   12 1
    21   12   18 ar
    22   12   13 ar
    23   13   14 ar
    24   14   15 1
    25   14   16 ar
    26   16   21 1
    27   16   17 ar
    28   17   18 ar
    29   17   19 1
    30   19   20 1
    31   19   40 1
    32   19   41 1
    33   20   21 1
    34   20   42 1
    35   20   43 1
    36   21   44 1
    37   21   45 1
    38   22   23 am
    39   22   46 1
    40   23   24 2
    41   23   25 am
    42   25   26 1
    43   25   47 1
    44   26   27 1
    45   26   48 1
    46   26   49 1
    47   27   32 ar
    48   27   28 ar
    49   28   29 ar
    50   28   50 1
    51   29   30 ar
    52   29   51 1
    53   30   31 ar
    54   30   33 1
    55   31   32 ar
    56   31   52 1
    57   32   53 1
@<TRIPOS>MOLECULE
ZINC59293329
   54    58     0     0     0
SMALL
USER_CHARGES

@<TRIPOS>ATOM
      1 C1          1.3126    1.3686    1.9009 C.ar      1 <0>        -0.1065
      2 C2          1.1621   -0.0040    1.9986 C.ar      1 <0>        -0.1112
      3 C3          2.2346   -0.8373    1.7625 C.ar      1 <0>        -0.0918
      4 C4          3.4779   -0.2921    1.4229 C.ar      1 <0>        -0.0760
      5 C5          3.6214    1.0967    1.3258 C.ar      1 <0>        -0.0931
      6 C6          2.5389    1.9160    1.5656 C.ar      1 <0>        -0.1262
      7 C7          4.6269   -1.1730    1.1699 C.2       1 <0>         0.0308
      8 C8          4.4304   -2.4970    0.9462 C.2       1 <0>        -0.2488
      9 C9          5.4162   -3.5795    0.8319 C.2       1 <0>         0.5532
     10 O1          6.6066   -3.3518    0.9393 O.2       1 <0>        -0.4972
     11 N1          4.9708   -4.8315    0.6056 N.am      1 <0>        -0.4960
     12 C10         3.6055   -5.0159    0.4951 C.2       1 <0>         0.0424
     13 C11         3.0112   -6.2137    0.2682 C.2       1 <0>        -0.0158
     14 C12         3.8927   -7.4384    0.1246 C.3       1 <0>         0.0820
     15 H1          3.7020   -7.8831   -0.8521 H         1 <0>         0.0950
     16 C13         5.3829   -7.1952    0.2519 C.2       1 <0>        -0.2105
     17 C14         5.8197   -5.9368    0.4791 C.2       1 <0>         0.4675
     18 N2          7.1734   -5.7309    0.5919 N.pl3     1 <0>        -0.8586
     19 C15         6.3113   -8.2790    0.1336 C.1       1 <0>         0.2927
     20 N3          7.0477   -9.1389    0.0397 N.1       1 <0>        -0.4483
     21 C16         3.4898   -8.4356    1.1802 C.ar      1 <0>        -0.0416
     22 C17         3.5667   -8.0953    2.5178 C.ar      1 <0>        -0.1040
     23 C18         3.1972   -9.0100    3.4861 C.ar      1 <0>        -0.1266
     24 C19         2.7503  -10.2649    3.1168 C.ar      1 <0>        -0.1282
     25 C20         2.6726  -10.6049    1.7792 C.ar      1 <0>        -0.1235
     26 C21         3.0380   -9.6887    0.8107 C.ar      1 <0>        -0.0778
     27 C22         1.6112   -6.3171    0.1691 C.2       1 <0>         0.4404
     28 O2          1.0356   -7.5217   -0.0578 O.3       1 <0>        -0.6992
     29 N4          0.8592   -5.2399    0.2973 N.2       1 <0>        -0.6647
     30 C23        -0.4989   -5.3363    0.1774 C.ar      1 <0>         0.1875
     31 C24        -1.1998   -6.3090    0.8947 C.ar      1 <0>        -0.1253
     32 C25        -2.5705   -6.4003    0.7692 C.ar      1 <0>        -0.1184
     33 C26        -3.2526   -5.5320   -0.0649 C.ar      1 <0>        -0.1599
     34 C27        -2.5667   -4.5654   -0.7793 C.ar      1 <0>        -0.1448
     35 C28        -1.1951   -4.4576   -0.6600 C.ar      1 <0>         0.0435
     36 F1         -0.5269   -3.5103   -1.3538 F         1 <0>        -0.1460
     37 S1          2.9034   -3.3937    0.7194 S.3       1 <0>         0.1753
     38 H2          0.4674    2.0158    2.0831 H         1 <0>         0.1236
     39 H3          0.2019   -0.4231    2.2608 H         1 <0>         0.1296
     40 H4          2.1157   -1.9080    1.8398 H         1 <0>         0.1397
     41 H5          4.5776    1.5253    1.0646 H         1 <0>         0.1272
     42 H6          2.6480    2.9879    1.4915 H         1 <0>         0.1242
     43 H7          5.6275   -0.7667    1.1621 H         1 <0>         0.1467
     44 H8          7.5095   -5.0040    1.1392 H         1 <0>         0.4145
     45 H9          7.7931   -6.3124    0.1241 H         1 <0>         0.4084
     46 H10         3.9159   -7.1148    2.8063 H         1 <0>         0.1085
     47 H11         3.2580   -8.7443    4.5311 H         1 <0>         0.1128
     48 H12         2.4623  -10.9798    3.8733 H         1 <0>         0.1122
     49 H13         2.3238  -11.5855    1.4906 H         1 <0>         0.1140
     50 H14         2.9738   -9.9531   -0.2345 H         1 <0>         0.1164
     51 H15        -0.6695   -6.9883    1.5458 H         1 <0>         0.1198
     52 H16        -3.1130   -7.1520    1.3234 H         1 <0>         0.1070
     53 H17        -4.3256   -5.6094   -0.1592 H         1 <0>         0.1103
     54 H18        -3.1057   -3.8911   -1.4284 H         1 <0>         0.1153
@<TRIPOS>BOND
     1    1    6 ar
     2    1    2 ar
     3    1   38 1
     4    2    3 ar
     5    2   39 1
     6    3    4 ar
     7    3   40 1
     8    4    5 ar
     9    4    7 1
    10    5    6 ar
    11    5   41 1
    12    6   42 1
    13    7    8 2
    14    7   43 1
    15    8   37 1
    16    8    9 1
    17    9   10 2
    18    9   11 am
    19   11   17 1
    20   11   12 1
    21   12   13 2
    22   12   37 1
    23   13   14 1
    24   13   27 1
    25   14   15 1
    26   14   16 1
    27   14   21 1
    28   16   17 2
    29   16   19 1
    30   17   18 1
    31   18   44 1
    32   18   45 1
    33   19   20 3
    34   21   26 ar
    35   21   22 ar
    36   22   23 ar
    37   22   46 1
    38   23   24 ar
    39   23   47 1
    40   24   25 ar
    41   24   48 1
    42   25   26 ar
    43   25   49 1
    44   26   50 1
    45   27   28 1
    46   27   29 2
    47   29   30 1
    48   30   35 ar
    49   30   31 ar
    50   31   32 ar
    51   31   51 1
    52   32   33 ar
    53   32   52 1
    54   33   34 ar
    55   33   53 1
    56   34   35 ar
    57   34   54 1
    58   35   36 1
@<TRIPOS>MOLECULE
ZINC02446389
   49    52     0     0     0
SMALL
USER_CHARGES
1-(4-amino-1,2,5-oxadiazol-3-yl)-N-[(2-chloro-6-fluoro-phenyl)methyleneamino]-5-(p-tolylsulfanylmethyl)triazole-4-carboxamide
@<TRIPOS>ATOM
      1 C1          0.0600   -4.2778   -0.0223 C.3       1 <0>        -0.1160
      2 C2          0.0396   -2.7710   -0.0136 C.ar      1 <0>        -0.0863
      3 C3         -1.1683   -2.0975    0.0020 C.ar      1 <0>        -0.0999
      4 C4         -1.1909   -0.7169    0.0096 C.ar      1 <0>        -0.0920
      5 C5          0.0021   -0.0041    0.0020 C.ar      1 <0>        -0.0861
      6 C6          1.2139   -0.6841   -0.0189 C.ar      1 <0>        -0.1229
      7 C7          1.2288   -2.0649   -0.0207 C.ar      1 <0>        -0.0987
      8 S1         -0.0218    1.7577    0.0117 S.3       1 <0>        -0.0682
      9 C8          1.7321    2.2205   -0.0026 C.3       1 <0>        -0.0728
     10 C9          1.8554    3.7224    0.0043 C.2       1 <0>         0.1738
     11 C10         1.9176    4.5397   -1.0885 C.2       1 <0>        -0.0686
     12 N1          2.0202    5.8113   -0.6641 N.2       1 <0>        -0.1640
     13 N2          2.0351    5.8369    0.6231 N.2       1 <0>        -0.0288
     14 N3          1.9317    4.5199    1.0930 N.pl3     1 <0>        -0.2978
     15 C11         1.9108    4.1103    2.4309 C.2       1 <0>         0.2877
     16 C12         1.9948    4.9914    3.5992 C.2       1 <0>         0.3596
     17 N4          1.9434    4.2535    4.6740 N.2       1 <0>        -0.3303
     18 O1          1.8274    2.9015    4.2668 O.3       1 <0>         0.0625
     19 N5          1.8077    2.8811    2.8505 N.2       1 <0>        -0.2499
     20 N6          2.1103    6.3766    3.5674 N.pl3     1 <0>        -0.8014
     21 C13         1.8753    4.1016   -2.4961 C.2       1 <0>         0.6275
     22 O2          1.7770    2.9188   -2.7622 O.2       1 <0>        -0.4732
     23 N7          1.9455    5.0118   -3.4876 N.am      1 <0>        -0.5696
     24 N8          1.9053    4.5955   -4.8248 N.2       1 <0>        -0.1912
     25 C14         1.9729    5.4721   -5.7796 C.2       1 <0>         0.0993
     26 C15         1.9307    5.0341   -7.1866 C.ar      1 <0>        -0.0828
     27 C16         2.0033    5.9759   -8.2188 C.ar      1 <0>         0.1403
     28 C17         1.9629    5.5567   -9.5347 C.ar      1 <0>        -0.1540
     29 C18         1.8506    4.2103   -9.8322 C.ar      1 <0>        -0.0605
     30 C19         1.7779    3.2736   -8.8168 C.ar      1 <0>        -0.1269
     31 C20         1.8236    3.6755   -7.4965 C.ar      1 <0>         0.0120
     32 Cl1         1.7398    2.4968   -6.2247 Cl        1 <0>         0.0004
     33 F1          2.1121    7.2911   -7.9297 F         1 <0>        -0.1254
     34 H1          0.0550   -4.6353   -1.0520 H         1 <0>         0.0725
     35 H2          0.9598   -4.6319    0.4808 H         1 <0>         0.0676
     36 H3         -0.8199   -4.6561    0.4980 H         1 <0>         0.0681
     37 H4         -2.0950   -2.6522    0.0079 H         1 <0>         0.1296
     38 H5         -2.1345   -0.1917    0.0217 H         1 <0>         0.1279
     39 H6          2.1428   -0.1334   -0.0294 H         1 <0>         0.1205
     40 H7          2.1702   -2.5941   -0.0325 H         1 <0>         0.1272
     41 H8          2.2230    1.8116    0.8806 H         1 <0>         0.1215
     42 H9          2.2060    1.8211   -0.8993 H         1 <0>         0.1475
     43 H10         2.1416    6.8413    2.7166 H         1 <0>         0.4282
     44 H11         2.1595    6.8783    4.3962 H         1 <0>         0.4247
     45 H12         2.0238    5.9550   -3.2754 H         1 <0>         0.3948
     46 H13         2.0602    6.5223   -5.5434 H         1 <0>         0.1332
     47 H14         2.0189    6.2820  -10.3330 H         1 <0>         0.1482
     48 H15         1.8192    3.8887  -10.8627 H         1 <0>         0.1470
     49 H16         1.6899    2.2244   -9.0575 H         1 <0>         0.1455
@<TRIPOS>BOND
     1    1    2 1
     2    1   34 1
     3    1   35 1
     4    1   36 1
     5    2    7 ar
     6    2    3 ar
     7    3    4 ar
     8    3   37 1
     9    4    5 ar
    10    4   38 1
    11    5    6 ar
    12    5    8 1
    13    6    7 ar
    14    6   39 1
    15    7   40 1
    16    8    9 1
    17    9   10 1
    18    9   41 1
    19    9   42 1
    20   10   14 1
    21   10   11 2
    22   11   12 1
    23   11   21 1
    24   12   13 2
    25   13   14 1
    26   14   15 1
    27   15   19 2
    28   15   16 1
    29   16   17 2
    30   16   20 1
    31   17   18 1
    32   18   19 1
    33   20   43 1
    34   20   44 1
    35   21   22 2
    36   21   23 am
    37   23   24 1
    38   23   45 1
    39   24   25 2
    40   25   26 1
    41   25   46 1
    42   26   31 ar
    43   26   27 ar
    44   27   28 ar
    45   27   33 1
    46   28   29 ar
    47   28   47 1
    48   29   30 ar
    49   29   48 1
    50   30   31 ar
    51   30   49 1
    52   31   32 1
@<TRIPOS>MOLECULE
ZINC10049020
   61    65     0     0     0
SMALL
USER_CHARGES
3-(2-aminophenyl)aminopropyl-(4-chlorophenyl)-trimethyl-BLAHdione
@<TRIPOS>ATOM
      1 C1         -0.4198    7.5105   -7.9493 C.3       1 <0>        -0.0854
      2 C2         -0.8498    6.1772   -7.3938 C.2       1 <0>         0.0717
      3 C3         -0.3314    5.5718   -6.3294 C.2       1 <0>         0.0241
      4 N1         -0.9945    4.3713   -6.1439 N.pl3     1 <0>        -0.3480
      5 C4         -1.0822    3.2351   -5.3538 C.2       1 <0>        -0.1839
      6 C5         -2.0998    2.4548   -5.9012 C.2       1 <0>         0.3759
      7 N2         -2.5790    3.1065   -6.9573 N.2       1 <0>        -0.5006
      8 C6         -1.9301    4.2508   -7.1149 C.2       1 <0>         0.4497
      9 N3         -1.8519    5.3710   -7.9032 N.pl3     1 <0>        -0.4134
     10 C7         -2.6453    5.6489   -9.0236 C.ar      1 <0>         0.1276
     11 C8         -2.0658    5.7325  -10.2828 C.ar      1 <0>        -0.0907
     12 C9         -2.8513    6.0005  -11.3867 C.ar      1 <0>        -0.0959
     13 C10        -4.2129    6.1979  -11.2371 C.ar      1 <0>        -0.0214
     14 C11        -4.7919    6.1208   -9.9825 C.ar      1 <0>        -0.0945
     15 C12        -4.0119    5.8469   -8.8763 C.ar      1 <0>        -0.0827
     16 Cl1        -5.1962    6.5422  -12.6256 Cl        1 <0>        -0.0520
     17 N4         -2.4068    1.2424   -5.3019 N.am      1 <0>        -0.5092
     18 C13        -1.7238    0.8364   -4.2149 C.2       1 <0>         0.7105
     19 O1         -2.0024   -0.2313   -3.7041 O.2       1 <0>        -0.5282
     20 N5         -0.7451    1.5845   -3.6772 N.am      1 <0>        -0.5499
     21 C14        -0.4011    2.7724   -4.2159 C.2       1 <0>         0.5990
     22 O2          0.4922    3.4373   -3.7204 O.2       1 <0>        -0.5145
     23 C15        -0.0366    1.0992   -2.4903 C.3       1 <0>         0.1209
     24 C16        -0.7527    1.5927   -1.2315 C.3       1 <0>        -0.1448
     25 C17        -0.0127    1.0858    0.0080 C.3       1 <0>         0.1371
     26 N6         -0.6984    1.5583    1.2133 N.pl3     1 <0>        -0.7534
     27 C18        -0.2034    1.2197    2.4786 C.ar      1 <0>         0.1477
     28 C19         0.9324    0.4326    2.5931 C.ar      1 <0>        -0.1551
     29 C20         1.4223    0.1035    3.8435 C.ar      1 <0>        -0.1286
     30 C21         0.7767    0.5483    4.9823 C.ar      1 <0>        -0.1276
     31 C22        -0.3595    1.3292    4.8774 C.ar      1 <0>        -0.1582
     32 C23        -0.8546    1.6684    3.6274 C.ar      1 <0>         0.1491
     33 N7         -2.0053    2.4588    3.5188 N.pl3     1 <0>        -0.8854
     34 C24        -3.4708    0.4008   -5.8549 C.3       1 <0>         0.0883
     35 C25         0.7880    6.1026   -5.4713 C.3       1 <0>        -0.0850
     36 H1         -1.0021    8.3041   -7.4810 H         1 <0>         0.0902
     37 H2          0.6390    7.6660   -7.7420 H         1 <0>         0.0981
     38 H3         -0.5852    7.5257   -9.0265 H         1 <0>         0.0815
     39 H4         -1.0025    5.5833  -10.3994 H         1 <0>         0.1421
     40 H5         -2.4018    6.0612  -12.3668 H         1 <0>         0.1477
     41 H6         -5.8547    6.2752   -9.8684 H         1 <0>         0.1471
     42 H7         -4.4642    5.7872   -7.8974 H         1 <0>         0.1402
     43 H8          0.9860    1.4765   -2.4981 H         1 <0>         0.1054
     44 H9         -0.0218    0.0093   -2.4963 H         1 <0>         0.1065
     45 H10        -1.7753    1.2154   -1.2238 H         1 <0>         0.0758
     46 H11        -0.7675    2.6825   -1.2255 H         1 <0>         0.0747
     47 H12         0.0021   -0.0041    0.0020 H         1 <0>         0.0634
     48 H13         1.0099    1.4631    0.0003 H         1 <0>         0.0626
     49 H14        -1.4954    2.1056    1.1349 H         1 <0>         0.3912
     50 H15         1.4368    0.0801    1.7055 H         1 <0>         0.1202
     51 H16         2.3094   -0.5062    3.9308 H         1 <0>         0.1175
     52 H17         1.1608    0.2847    5.9566 H         1 <0>         0.1172
     53 H18        -0.8615    1.6747    5.7690 H         1 <0>         0.1181
     54 H19        -2.3507    2.6950    2.6437 H         1 <0>         0.3892
     55 H20        -2.4571    2.7701    4.3187 H         1 <0>         0.3981
     56 H21        -3.0485   -0.2795   -6.5944 H         1 <0>         0.0747
     57 H22        -3.9322   -0.1754   -5.0528 H         1 <0>         0.0954
     58 H23        -4.2233    1.0310   -6.3288 H         1 <0>         0.0921
     59 H24         0.3722    6.7030   -4.6622 H         1 <0>         0.0811
     60 H25         1.3514    5.2687   -5.0524 H         1 <0>         0.0886
     61 H26         1.4500    6.7198   -6.0786 H         1 <0>         0.0879
@<TRIPOS>BOND
     1    1    2 1
     2    1   36 1
     3    1   37 1
     4    1   38 1
     5    2    9 1
     6    2    3 2
     7    3    4 1
     8    3   35 1
     9    4    8 1
    10    4    5 1
    11    5   21 1
    12    5    6 2
    13    6    7 1
    14    6   17 1
    15    7    8 2
    16    8    9 1
    17    9   10 1
    18   10   15 ar
    19   10   11 ar
    20   11   12 ar
    21   11   39 1
    22   12   13 ar
    23   12   40 1
    24   13   14 ar
    25   13   16 1
    26   14   15 ar
    27   14   41 1
    28   15   42 1
    29   17   18 am
    30   17   34 1
    31   18   19 2
    32   18   20 am
    33   20   21 am
    34   20   23 1
    35   21   22 2
    36   23   24 1
    37   23   43 1
    38   23   44 1
    39   24   25 1
    40   24   45 1
    41   24   46 1
    42   25   26 1
    43   25   47 1
    44   25   48 1
    45   26   27 1
    46   26   49 1
    47   27   32 ar
    48   27   28 ar
    49   28   29 ar
    50   28   50 1
    51   29   30 ar
    52   29   51 1
    53   30   31 ar
    54   30   52 1
    55   31   32 ar
    56   31   53 1
    57   32   33 1
    58   33   54 1
    59   33   55 1
    60   34   56 1
    61   34   57 1
    62   34   58 1
    63   35   59 1
    64   35   60 1
    65   35   61 1
@<TRIPOS>MOLECULE
ZINC21893017
   66    70     0     0     0
SMALL
USER_CHARGES
N-(6-amino-1-benzyl-2,4-dioxo-pyrimidin-5-yl)-2-(benzotriazol-1-yl)-N-[2-(1-cyclohexenyl)ethyl]acetamide
@<TRIPOS>ATOM
      1 C1          6.2980    1.5686   -4.5329 C.ar      1 <0>        -0.1050
      2 C2          6.6889    1.0492   -3.3130 C.ar      1 <0>        -0.1205
      3 C3          5.7362    0.6433   -2.3973 C.ar      1 <0>        -0.1032
      4 C4          4.3926    0.7567   -2.7016 C.ar      1 <0>        -0.1257
      5 C5          4.0017    1.2713   -3.9236 C.ar      1 <0>        -0.0859
      6 C6          4.9543    1.6821   -4.8372 C.ar      1 <0>        -0.1192
      7 C7          3.3540    0.3137   -1.7035 C.3       1 <0>         0.1477
      8 N1          3.0009    1.4388   -0.8342 N.am      1 <0>        -0.5353
      9 C8          3.6972    1.6448    0.3341 C.2       1 <0>         0.4964
     10 C9          3.3574    2.7108    1.1418 C.2       1 <0>        -0.1572
     11 C10         2.2987    3.5508    0.7485 C.2       1 <0>         0.5692
     12 O1          1.9748    4.4974    1.4456 O.2       1 <0>        -0.5121
     13 N2          1.6457    3.3021   -0.4036 N.am      1 <0>        -0.6749
     14 H1          0.8174    3.9540   -0.7181 H         1 <0>         0.4614
     15 C11         1.9940    2.2611   -1.1805 C.2       1 <0>         0.7133
     16 O2          1.3879    2.0596   -2.2153 O.2       1 <0>        -0.5376
     17 N3          4.0557    2.9514    2.3440 N.am      1 <0>        -0.5212
     18 C12         5.4671    3.3423    2.3055 C.3       1 <0>         0.1032
     19 C13         5.5760    4.8670    2.3719 C.3       1 <0>        -0.1048
     20 C14         7.0278    5.2691    2.3324 C.2       1 <0>        -0.1214
     21 C15         7.5406    5.5797    1.1852 C.2       1 <0>        -0.1457
     22 C16         8.9706    5.9893    0.9865 C.3       1 <0>        -0.0940
     23 C17         9.5937    6.3936    2.3243 C.3       1 <0>        -0.1247
     24 C18         9.2944    5.2940    3.3510 C.3       1 <0>        -0.1198
     25 C19         7.7876    5.2903    3.6264 C.3       1 <0>        -0.0834
     26 C20         3.4236    2.8215    3.5290 C.2       1 <0>         0.5006
     27 O3          2.2336    2.5873    3.5593 O.2       1 <0>        -0.4878
     28 C21         4.1959    2.9674    4.8149 C.3       1 <0>         0.1155
     29 N4          3.2904    2.7839    5.9518 N.pl3     1 <0>        -0.3832
     30 C22         2.9945    1.6003    6.5851 C.ar      1 <0>         0.0966
     31 C23         3.3968    0.2811    6.4053 C.ar      1 <0>        -0.1233
     32 C24         2.9070   -0.6963    7.2254 C.ar      1 <0>        -0.0651
     33 C25         2.0094   -0.3845    8.2386 C.ar      1 <0>        -0.1366
     34 C26         1.5992    0.9015    8.4357 C.ar      1 <0>        -0.0317
     35 C27         2.0865    1.9224    7.6087 C.ar      1 <0>        -0.0159
     36 N5          1.8705    3.2520    7.5606 N.2       1 <0>        -0.2143
     37 N6          2.5593    3.7825    6.6124 N.2       1 <0>         0.0089
     38 N7          4.7221    0.8014    0.6905 N.pl3     1 <0>        -0.8580
     39 H2          7.0423    1.8855   -5.2484 H         1 <0>         0.1255
     40 H3          7.7387    0.9603   -3.0754 H         1 <0>         0.1256
     41 H4          6.0417    0.2371   -1.4443 H         1 <0>         0.1168
     42 H5          2.9520    1.3558   -4.1630 H         1 <0>         0.1329
     43 H6          4.6489    2.0876   -5.7904 H         1 <0>         0.1269
     44 H7          2.4568   -0.0329   -2.2373 H         1 <0>         0.1221
     45 H8          3.7582   -0.5079   -1.0939 H         1 <0>         0.0994
     46 H9          5.9938    2.8993    3.1636 H         1 <0>         0.0828
     47 H10         5.9219    2.9826    1.3707 H         1 <0>         0.0887
     48 H11         5.0494    5.3099    1.5137 H         1 <0>         0.0784
     49 H12         5.1212    5.2267    3.3066 H         1 <0>         0.0736
     50 H13         6.9179    5.5524    0.2789 H         1 <0>         0.1031
     51 H14         9.5381    5.1468    0.5644 H         1 <0>         0.0726
     52 H15         9.0146    6.8439    0.2953 H         1 <0>         0.0710
     53 H16        10.6809    6.5084    2.2026 H         1 <0>         0.0644
     54 H17         9.1593    7.3476    2.6577 H         1 <0>         0.0645
     55 H18         9.6063    4.3198    2.9463 H         1 <0>         0.0639
     56 H19         9.8471    5.4992    4.2797 H         1 <0>         0.0660
     57 H20         7.5216    6.1949    4.1930 H         1 <0>         0.0759
     58 H21         7.5305    4.3988    4.2172 H         1 <0>         0.0694
     59 H22         4.9911    2.2083    4.8532 H         1 <0>         0.1263
     60 H23         4.6443    3.9708    4.8615 H         1 <0>         0.1343
     61 H24         4.0946    0.0299    5.6202 H         1 <0>         0.1264
     62 H25         3.2207   -1.7201    7.0846 H         1 <0>         0.1371
     63 H26         1.6324   -1.1691    8.8779 H         1 <0>         0.1376
     64 H27         0.9010    1.1321    9.2268 H         1 <0>         0.1394
     65 H28         5.2747    0.9721    1.6262 H         1 <0>         0.4448
     66 H29         4.9898   -0.0443    0.0401 H         1 <0>         0.4253
@<TRIPOS>BOND
     1    1    6 ar
     2    1    2 ar
     3    1   39 1
     4    2    3 ar
     5    2   40 1
     6    3    4 ar
     7    3   41 1
     8    4    5 ar
     9    4    7 1
    10    5    6 ar
    11    5   42 1
    12    6   43 1
    13    7    8 1
    14    7   44 1
    15    7   45 1
    16    8   15 am
    17    8    9 1
    18    9   10 2
    19    9   38 1
    20   10   11 1
    21   10   17 1
    22   11   12 2
    23   11   13 am
    24   13   14 1
    25   13   15 am
    26   15   16 2
    27   17   18 1
    28   17   26 am
    29   18   19 1
    30   18   46 1
    31   18   47 1
    32   19   20 1
    33   19   48 1
    34   19   49 1
    35   20   25 1
    36   20   21 2
    37   21   22 1
    38   21   50 1
    39   22   23 1
    40   22   51 1
    41   22   52 1
    42   23   24 1
    43   23   53 1
    44   23   54 1
    45   24   25 1
    46   24   55 1
    47   24   56 1
    48   25   57 1
    49   25   58 1
    50   26   27 2
    51   26   28 1
    52   28   29 1
    53   28   59 1
    54   28   60 1
    55   29   37 1
    56   29   30 1
    57   30   35 ar
    58   30   31 ar
    59   31   32 ar
    60   31   61 1
    61   32   33 ar
    62   32   62 1
    63   33   34 ar
    64   33   63 1
    65   34   35 ar
    66   34   64 1
    67   35   36 1
    68   36   37 2
    69   38   65 1
    70   38   66 1
@<TRIPOS>MOLECULE
ZINC39411900
   50    53     0     0     0
SMALL
USER_CHARGES

@<TRIPOS>ATOM
      1 C1          0.4691    1.3628   -0.0495 C.3       1 <0>        -0.1086
      2 C2          0.1763   -0.1148   -0.0059 C.2       1 <0>         0.1952
      3 N1          0.0642   -0.9389   -1.0896 N.pl3     1 <0>        -0.4971
      4 N2         -0.2113   -2.2330   -0.6280 N.am      1 <0>        -0.5317
      5 C3         -0.2636   -2.1847    0.7188 C.2       1 <0>         0.5691
      6 C4         -0.0134   -0.8482    1.1094 C.2       1 <0>        -0.3071
      7 C5          0.0304   -0.3334    2.5250 C.3       1 <0>         0.1575
      8 H1          0.1291    0.7521    2.5140 H         1 <0>         0.1183
      9 C6         -1.2413   -0.7149    3.2379 C.2       1 <0>         0.0188
     10 C7         -2.1289    0.1457    3.7765 C.2       1 <0>        -0.2113
     11 C8         -3.1634   -0.6259    4.3385 C.2       1 <0>        -0.1809
     12 C9         -2.8477   -1.9307    4.1100 C.2       1 <0>         0.0144
     13 O1         -1.6811   -1.9674    3.4368 O.3       1 <0>        -0.0989
     14 C10        -3.6458   -3.0993    4.5229 C.ar      1 <0>         0.0594
     15 C11        -4.0993   -3.2113    5.8380 C.ar      1 <0>        -0.1000
     16 C12        -4.8453   -4.3061    6.2192 C.ar      1 <0>        -0.0562
     17 C13        -5.1511   -5.3026    5.3038 C.ar      1 <0>        -0.1005
     18 C14        -4.7126   -5.2123    3.9990 C.ar      1 <0>        -0.0357
     19 C15        -3.9611   -4.1088    3.5905 C.ar      1 <0>        -0.0970
     20 C16        -3.4958   -4.0030    2.1967 C.2       1 <0>         0.4891
     21 O2         -2.8378   -3.0431    1.8470 O.2       1 <0>        -0.4377
     22 O3         -3.8001   -4.9708    1.3094 O.3       1 <0>        -0.3536
     23 C17        -3.3162   -4.8031   -0.0247 C.3       1 <0>         0.0428
     24 Br1        -6.1757   -6.7956    5.8486 Br        1 <0>        -0.0331
     25 C18         1.2095   -0.9378    3.2431 C.2       1 <0>        -0.0890
     26 C19         2.1719   -0.3072    3.9197 C.2       1 <0>        -0.0451
     27 N3          3.0604   -1.1905    4.4263 N.2       1 <0>        -0.1333
     28 N4          2.8118   -2.3711    4.1696 N.2       1 <0>        -0.1855
     29 C20         1.5750   -2.4061    3.3705 C.3       1 <0>         0.1767
     30 H2          0.7914   -2.9545    3.8933 H         1 <0>         0.1297
     31 O4          1.8230   -2.9786    2.0849 O.3       1 <0>        -0.5040
     32 C21         2.2562    1.1872    4.0949 C.3       1 <0>        -0.0862
     33 O5         -0.4827   -3.1227    1.4640 O.2       1 <0>        -0.5012
     34 H3          1.5472    1.5206   -0.0190 H         1 <0>         0.0927
     35 H4          0.0658    1.7862   -0.9693 H         1 <0>         0.0813
     36 H5          0.0062    1.8504    0.8085 H         1 <0>         0.0942
     37 H6         -2.0590    1.2235    3.7770 H         1 <0>         0.1491
     38 H7         -4.0381   -0.2548    4.8520 H         1 <0>         0.1484
     39 H8         -3.8655   -2.4403    6.5573 H         1 <0>         0.1486
     40 H9         -5.1938   -4.3888    7.2380 H         1 <0>         0.1471
     41 H10        -4.9543   -5.9927    3.2927 H         1 <0>         0.1517
     42 H11        -3.7212   -3.8826   -0.4451 H         1 <0>         0.0540
     43 H12        -2.2277   -4.7488   -0.0123 H         1 <0>         0.0633
     44 H13        -3.6308   -5.6501   -0.6344 H         1 <0>         0.0983
     45 H14         2.0607   -3.9156    2.1109 H         1 <0>         0.3852
     46 H15         1.7176    1.4783    4.9967 H         1 <0>         0.0814
     47 H16         3.3012    1.4842    4.1840 H         1 <0>         0.0825
     48 H17         1.8109    1.6801    3.2307 H         1 <0>         0.0754
     49 H18         0.1585   -0.6741   -2.0179 H         1 <0>         0.4402
     50 H19        -0.3412   -3.0213   -1.1780 H         1 <0>         0.4292
@<TRIPOS>BOND
     1    1    2 1
     2    1   34 1
     3    1   35 1
     4    1   36 1
     5    2    6 2
     6    2    3 1
     7    3   49 1
     8    3    4 1
     9    4    5 am
    10    4   50 1
    11    5   33 2
    12    5    6 1
    13    6    7 1
    14    7    8 1
    15    7    9 1
    16    7   25 1
    17    9   13 1
    18    9   10 2
    19   10   11 1
    20   10   37 1
    21   11   12 2
    22   11   38 1
    23   12   13 1
    24   12   14 1
    25   14   19 ar
    26   14   15 ar
    27   15   16 ar
    28   15   39 1
    29   16   17 ar
    30   16   40 1
    31   17   18 ar
    32   17   24 1
    33   18   19 ar
    34   18   41 1
    35   19   20 1
    36   20   21 2
    37   20   22 1
    38   22   23 1
    39   23   42 1
    40   23   43 1
    41   23   44 1
    42   25   29 1
    43   25   26 2
    44   26   27 1
    45   26   32 1
    46   27   28 2
    47   28   29 1
    48   29   30 1
    49   29   31 1
    50   31   45 1
    51   32   46 1
    52   32   47 1
    53   32   48 1
@<TRIPOS>MOLECULE
ZINC09721018
   59    62     0     0     0
SMALL
USER_CHARGES

@<TRIPOS>ATOM
      1 C1          0.6731   -1.4831    1.8882 C.3       1 <0>         0.0874
      2 N1          0.0085   -0.7717    0.7935 N.pl3     1 <0>        -0.6296
      3 C2         -0.6896    0.4892    1.0565 C.3       1 <0>         0.0875
      4 C3          0.0403   -1.2938   -0.4968 C.ar      1 <0>         0.2386
      5 C4         -0.5870   -0.6131   -1.5366 C.ar      1 <0>        -0.2043
      6 C5         -0.5577   -1.1251   -2.8135 C.ar      1 <0>        -0.0482
      7 C6          0.1045   -2.3330   -3.0662 C.ar      1 <0>        -0.1480
      8 C7          0.7342   -3.0144   -2.0170 C.ar      1 <0>        -0.0307
      9 C8          0.7043   -2.4921   -0.7443 C.ar      1 <0>        -0.2036
     10 C9          0.1381   -2.8837   -4.4271 C.2       1 <0>        -0.0295
     11 C10        -0.0300   -2.0643   -5.4945 C.2       1 <0>         0.0494
     12 C11        -0.1589   -2.6310   -6.8405 C.2       1 <0>         0.5730
     13 O1         -0.2043   -1.8951   -7.8087 O.2       1 <0>        -0.4608
     14 N2         -0.2271   -3.9668   -7.0056 N.am      1 <0>        -0.5678
     15 N3         -0.2431   -4.5133   -8.2955 N.2       1 <0>        -0.0830
     16 C12        -0.4183   -5.8030   -8.4594 C.2       1 <0>         0.0526
     17 C13        -0.7696   -6.8041   -7.4256 C.ar      1 <0>        -0.1539
     18 C14        -1.0088   -6.7176   -6.0586 C.ar      1 <0>         0.0036
     19 C15        -1.3228   -7.8569   -5.3450 C.ar      1 <0>        -0.0708
     20 C16        -1.3985   -9.0804   -5.9892 C.ar      1 <0>        -0.0002
     21 C17        -1.1628   -9.1764   -7.3457 C.ar      1 <0>        -0.1308
     22 C18        -0.8456   -8.0397   -8.0813 C.ar      1 <0>         0.2286
     23 N4         -0.5671   -7.8611   -9.4318 N.am      1 <0>        -0.6412
     24 C19        -0.3149   -6.5718   -9.7151 C.2       1 <0>         0.5961
     25 O2         -0.0456   -6.1189  -10.8121 O.2       1 <0>        -0.4447
     26 N5         -1.5784   -7.7707   -3.8896 N.pl3     1 <0>         0.0369
     27 O3         -1.6027   -6.6926   -3.3430 O.2       1 <0>        -0.1546
     28 O4         -1.7628   -8.7784   -3.2475 O.3       1 <0>        -0.1477
     29 N6         -0.0803   -0.6781   -5.3112 N.am      1 <0>        -0.6550
     30 C20        -1.1265    0.0268   -5.7855 C.2       1 <0>         0.5615
     31 O5         -2.0684   -0.5504   -6.2932 O.2       1 <0>        -0.5045
     32 C21        -1.1289    1.5018   -5.6884 C.ar      1 <0>        -0.1356
     33 C22        -0.0025    2.1747   -5.2119 C.ar      1 <0>        -0.0847
     34 C23        -0.0112    3.5515   -5.1243 C.ar      1 <0>        -0.1259
     35 C24        -1.1329    4.2651   -5.5074 C.ar      1 <0>        -0.0901
     36 C25        -2.2527    3.6043   -5.9805 C.ar      1 <0>        -0.1261
     37 C26        -2.2554    2.2282   -6.0782 C.ar      1 <0>        -0.0557
     38 H1         -0.0287   -2.1787    2.3484 H         1 <0>         0.0534
     39 H2          1.5278   -2.0349    1.4970 H         1 <0>         0.0719
     40 H3          1.0146   -0.7651    2.6338 H         1 <0>         0.0695
     41 H4          0.0039    1.3211    0.9330 H         1 <0>         0.0525
     42 H5         -1.5173    0.5992    0.3559 H         1 <0>         0.0716
     43 H6         -1.0746    0.4855    2.0762 H         1 <0>         0.0699
     44 H7         -1.0977    0.3182   -1.3407 H         1 <0>         0.1261
     45 H8         -1.0449   -0.5965   -3.6194 H         1 <0>         0.1324
     46 H9          1.2460   -3.9462   -2.2074 H         1 <0>         0.1279
     47 H10         1.1934   -3.0146    0.0645 H         1 <0>         0.1281
     48 H11         0.2966   -3.9413   -4.5779 H         1 <0>         0.1321
     49 H12        -0.2652   -4.5499   -6.2313 H         1 <0>         0.3905
     50 H13        -0.9487   -5.7630   -5.5570 H         1 <0>         0.1469
     51 H14        -1.6440   -9.9679   -5.4248 H         1 <0>         0.1701
     52 H15        -1.2245  -10.1363   -7.8368 H         1 <0>         0.1632
     53 H16        -0.5597   -8.5760  -10.0873 H         1 <0>         0.4367
     54 H17         0.6378   -0.2244   -4.8428 H         1 <0>         0.4154
     55 H18         0.8736    1.6188   -4.9122 H         1 <0>         0.1251
     56 H19         0.8595    4.0733   -4.7554 H         1 <0>         0.1306
     57 H20        -1.1346    5.3428   -5.4365 H         1 <0>         0.1290
     58 H21        -3.1251    4.1672   -6.2776 H         1 <0>         0.1319
     59 H22        -3.1285    1.7138   -6.4516 H         1 <0>         0.1369
@<TRIPOS>BOND
     1    1    2 1
     2    1   38 1
     3    1   39 1
     4    1   40 1
     5    2    3 1
     6    2    4 1
     7    3   41 1
     8    3   42 1
     9    3   43 1
    10    4    9 ar
    11    4    5 ar
    12    5    6 ar
    13    5   44 1
    14    6    7 ar
    15    6   45 1
    16    7    8 ar
    17    7   10 1
    18    8    9 ar
    19    8   46 1
    20    9   47 1
    21   10   11 2
    22   10   48 1
    23   11   12 1
    24   11   29 1
    25   12   13 2
    26   12   14 am
    27   14   15 1
    28   14   49 1
    29   15   16 2
    30   16   24 1
    31   16   17 1
    32   17   22 ar
    33   17   18 ar
    34   18   19 ar
    35   18   50 1
    36   19   20 ar
    37   19   26 1
    38   20   21 ar
    39   20   51 1
    40   21   22 ar
    41   21   52 1
    42   22   23 1
    43   23   24 am
    44   23   53 1
    45   24   25 2
    46   26   27 2
    47   26   28 1
    48   29   30 am
    49   29   54 1
    50   30   31 2
    51   30   32 1
    52   32   37 ar
    53   32   33 ar
    54   33   34 ar
    55   33   55 1
    56   34   35 ar
    57   34   56 1
    58   35   36 ar
    59   35   57 1
    60   36   37 ar
    61   36   58 1
    62   37   59 1
@<TRIPOS>MOLECULE
ZINC11616174
   64    67     0     0     0
SMALL
USER_CHARGES
4-[2-[(8S,9R,10S,11R,13R,14S,17S)-11,17-dihydroxy-10,13-dimethyl-3-oxo-7,8,9,11,12,14,15,16-octahydro-6H-cyclopenta[a]phenanthren-17-yl]-2-oxo-ethoxy]-4-oxo-butanoic acid
@<TRIPOS>ATOM
      1 C1         -3.5808   -3.9701    0.0700 C.3       1 <0>        -0.1759
      2 C2         -3.9065   -2.4751    0.0638 C.3       1 <0>        -0.0094
      3 C3         -4.1534   -1.9414    1.4772 C.3       1 <0>        -0.1287
      4 C4         -2.8499   -1.8902    2.2693 C.3       1 <0>         0.0984
      5 H1         -3.0521   -1.5489    3.2846 H         1 <0>         0.0714
      6 C5         -1.8932   -0.9112    1.5787 C.3       1 <0>        -0.0554
      7 H2         -2.4013    0.0486    1.4854 H         1 <0>         0.0856
      8 C6         -1.5970   -1.4354    0.1901 C.3       1 <0>        -0.0591
      9 H3         -0.9724   -0.7076   -0.3278 H         1 <0>         0.0662
     10 C7         -2.8460   -1.6420   -0.6277 C.3       1 <0>        -0.0784
     11 H4         -2.5825   -2.1289   -1.5667 H         1 <0>         0.0838
     12 C8         -3.5702   -0.3215   -0.9498 C.3       1 <0>        -0.1173
     13 C9         -4.9880   -0.7788   -1.3633 C.3       1 <0>        -0.1469
     14 C10        -5.1827   -2.1617   -0.7614 C.3       1 <0>         0.0970
     15 C11        -5.3731   -3.2018   -1.8352 C.2       1 <0>         0.3333
     16 O1         -4.4122   -3.7282   -2.3431 O.2       1 <0>        -0.3999
     17 C12        -6.7626   -3.5850   -2.2751 C.3       1 <0>         0.0198
     18 O2         -6.6798   -4.5981   -3.3120 O.3       1 <0>        -0.3413
     19 C13        -7.8388   -5.0508   -3.8155 C.2       1 <0>         0.4620
     20 O3         -8.8877   -4.6150   -3.4035 O.2       1 <0>        -0.5106
     21 C14        -7.8318   -6.1026   -4.8947 C.3       1 <0>        -0.0905
     22 C15        -9.2715   -6.4391   -5.2883 C.3       1 <0>        -0.1466
     23 C16        -9.2645   -7.4909   -6.3675 C.2       1 <0>         0.4622
     24 O4         -8.2156   -7.9268   -6.7795 O.co2     1 <0>        -0.6401
     25 O5         -6.3252   -2.1259    0.0962 O.3       1 <0>        -0.5427
     26 C17        -0.8129   -2.7474    0.3263 C.3       1 <0>        -0.1554
     27 C18         0.6048   -2.3928    0.7784 C.3       1 <0>        -0.0844
     28 C19         0.5633   -1.4616    1.9544 C.2       1 <0>        -0.0137
     29 C20         1.7164   -1.2292    2.6238 C.2       1 <0>        -0.2552
     30 C21         1.6166   -0.2111    3.7049 C.2       1 <0>         0.4180
     31 O6          2.1642   -0.3450    4.7833 O.2       1 <0>        -0.4556
     32 C22         0.7958    0.9840    3.3656 C.2       1 <0>        -0.2236
     33 C23        -0.3464    0.7207    2.6945 C.2       1 <0>        -0.0845
     34 C24        -0.6498   -0.7233    2.4062 C.3       1 <0>        -0.0059
     35 C25        -0.9900   -1.3262    3.7706 C.3       1 <0>        -0.1672
     36 O7         -2.2584   -3.1904    2.3095 O.3       1 <0>        -0.5332
     37 H5         -4.4740   -4.5354    0.3358 H         1 <0>         0.0465
     38 H6         -3.2412   -4.2720   -0.9208 H         1 <0>         0.0794
     39 H7         -2.7952   -4.1678    0.7993 H         1 <0>         0.0983
     40 H8         -4.8595   -2.5950    1.9896 H         1 <0>         0.0744
     41 H9         -4.5747   -0.9382    1.4138 H         1 <0>         0.0770
     42 H10        -3.6150    0.3168   -0.0674 H         1 <0>         0.0724
     43 H11        -3.0764    0.1964   -1.7720 H         1 <0>         0.0723
     44 H12        -5.7313   -0.0745   -0.9899 H         1 <0>         0.0904
     45 H13        -5.0551   -0.8516   -2.4488 H         1 <0>         0.0711
     46 H14        -7.2712   -3.9479   -1.4943 H         1 <0>         0.0930
     47 H15        -7.2753   -2.7061   -2.6660 H         1 <0>         0.0989
     48 H16        -7.2955   -5.7260   -5.7657 H         1 <0>         0.1080
     49 H17        -7.3373   -7.0004   -4.5238 H         1 <0>         0.1081
     50 H18        -9.8078   -6.8158   -4.4173 H         1 <0>         0.0737
     51 H19        -9.7660   -5.5413   -5.6592 H         1 <0>         0.0735
     52 H20        -7.1549   -1.9342   -0.3618 H         1 <0>         0.3791
     53 H21        -0.7775   -3.2587   -0.6357 H         1 <0>         0.0618
     54 H22        -1.2889   -3.3875    1.0691 H         1 <0>         0.1433
     55 H23         1.1354   -1.9119   -0.0434 H         1 <0>         0.0779
     56 H24         1.1321   -3.3045    1.0591 H         1 <0>         0.0782
     57 H25         2.6378   -1.7426    2.3913 H         1 <0>         0.1469
     58 H26         1.0919    1.9868    3.6359 H         1 <0>         0.1477
     59 H27        -1.0090    1.5116    2.3755 H         1 <0>         0.1377
     60 H28        -1.8944   -0.8582    4.1594 H         1 <0>         0.0646
     61 H29        -1.1531   -2.3986    3.6635 H         1 <0>         0.1000
     62 H30        -0.1648   -1.1513    4.4610 H         1 <0>         0.0495
     63 H31        -2.8109   -3.8609    2.7342 H         1 <0>         0.3677
     64 O8        -10.4235   -7.9436   -6.8710 O.co2     1 <0>        -0.7677
@<TRIPOS>BOND
     1    1    2 1
     2    1   37 1
     3    1   38 1
     4    1   39 1
     5    2   10 1
     6    2   14 1
     7    2    3 1
     8    3    4 1
     9    3   40 1
    10    3   41 1
    11    4    5 1
    12    4    6 1
    13    4   36 1
    14    6    7 1
    15    6   34 1
    16    6    8 1
    17    8    9 1
    18    8   10 1
    19    8   26 1
    20   10   11 1
    21   10   12 1
    22   12   13 1
    23   12   42 1
    24   12   43 1
    25   13   14 1
    26   13   44 1
    27   13   45 1
    28   14   15 1
    29   14   25 1
    30   15   16 2
    31   15   17 1
    32   17   18 1
    33   17   46 1
    34   17   47 1
    35   18   19 1
    36   19   20 2
    37   19   21 1
    38   21   22 1
    39   21   48 1
    40   21   49 1
    41   22   23 1
    42   22   50 1
    43   22   51 1
    44   23   24 2
    45   23   64 1
    46   25   52 1
    47   26   27 1
    48   26   53 1
    49   26   54 1
    50   27   28 1
    51   27   55 1
    52   27   56 1
    53   28   34 1
    54   28   29 2
    55   29   30 1
    56   29   57 1
    57   30   31 2
    58   30   32 1
    59   32   33 2
    60   32   58 1
    61   33   34 1
    62   33   59 1
    63   34   35 1
    64   35   60 1
    65   35   61 1
    66   35   62 1
    67   36   63 1
@<TRIPOS>MOLECULE
ZINC13279580
   54    57     0     0     0
SMALL
USER_CHARGES
2-[2-[(2R)-2-carbamoyl-1-piperidyl]-2-oxo-ethyl]sulfanyl-4-oxo-3-phenyl-quinazoline-7-carboxylic acid
@<TRIPOS>ATOM
      1 C1          3.1443   -5.5979    4.2340 C.ar      1 <0>        -0.1024
      2 C2          3.2604   -4.9497    5.4500 C.ar      1 <0>        -0.1116
      3 C3          3.0295   -3.5906    5.5345 C.ar      1 <0>        -0.0892
      4 C4          2.6805   -2.8750    4.3968 C.ar      1 <0>         0.1017
      5 C5          2.5596   -3.5298    3.1782 C.ar      1 <0>        -0.0884
      6 C6          2.7969   -4.8881    3.0992 C.ar      1 <0>        -0.1107
      7 N1          2.4452   -1.4967    4.4793 N.am      1 <0>        -0.4903
      8 C7          1.1986   -1.0433    4.7456 C.2       1 <0>         0.5585
      9 O1          0.2708   -1.8125    4.9159 O.2       1 <0>        -0.5038
     10 C8          1.0051    0.4131    4.8215 C.ar      1 <0>        -0.1945
     11 C9         -0.2427    0.9722    5.0966 C.ar      1 <0>        -0.0615
     12 C10        -0.3825    2.3291    5.1536 C.ar      1 <0>        -0.0868
     13 C11         0.7202    3.1689    4.9494 C.ar      1 <0>        -0.0657
     14 C12         1.9733    2.6335    4.6792 C.ar      1 <0>        -0.0728
     15 C13         2.1277    1.2459    4.6126 C.ar      1 <0>         0.1386
     16 N2          3.3301    0.6805    4.3531 N.2       1 <0>        -0.5124
     17 C14         3.4775   -0.6197    4.2905 C.2       1 <0>         0.3397
     18 S1          5.0792   -1.2684    3.9466 S.3       1 <0>         0.0747
     19 C15         6.0163    0.2726    3.7940 C.3       1 <0>        -0.1460
     20 C16         7.4582   -0.0442    3.4913 C.2       1 <0>         0.5321
     21 O2          7.8169   -1.1982    3.3887 O.2       1 <0>        -0.4946
     22 N3          8.3491    0.9549    3.3344 N.am      1 <0>        -0.5987
     23 C17         7.9598    2.3503    3.5793 C.3       1 <0>         0.1033
     24 C18         8.3049    3.1865    2.3484 C.3       1 <0>        -0.1405
     25 C19         9.7841    2.9974    2.0043 C.3       1 <0>        -0.1178
     26 C20        10.0501    1.5254    1.6806 C.3       1 <0>        -0.1236
     27 C21         9.7263    0.6699    2.9094 C.3       1 <0>         0.1303
     28 H1         10.4159    0.9123    3.7180 H         1 <0>         0.0890
     29 C22         9.8544   -0.7897    2.5567 C.2       1 <0>         0.5361
     30 O3          9.1950   -1.2549    1.6514 O.2       1 <0>        -0.5233
     31 N4         10.7018   -1.5780    3.2473 N.am      1 <0>        -0.8538
     32 C23         0.5488    4.6366    5.0215 C.2       1 <0>         0.4884
     33 O4          1.5016    5.3686    4.8448 O.co2     1 <0>        -0.6216
     34 H2          3.3257   -6.6606    4.1704 H         1 <0>         0.1287
     35 H3          3.5316   -5.5068    6.3345 H         1 <0>         0.1313
     36 H4          3.1207   -3.0849    6.4844 H         1 <0>         0.1269
     37 H5          2.2839   -2.9768    2.2925 H         1 <0>         0.1273
     38 H6          2.7073   -5.3971    2.1509 H         1 <0>         0.1317
     39 H7         -1.0978    0.3330    5.2596 H         1 <0>         0.1341
     40 H8         -1.3511    2.7589    5.3621 H         1 <0>         0.1437
     41 H9          2.8210    3.2839    4.5216 H         1 <0>         0.1449
     42 H10         5.5988    0.8732    2.9859 H         1 <0>         0.1311
     43 H11         5.9552    0.8291    4.7293 H         1 <0>         0.1303
     44 H12         6.8872    2.4030    3.7662 H         1 <0>         0.0977
     45 H13         8.5025    2.7349    4.4428 H         1 <0>         0.0781
     46 H14         8.1114    4.2389    2.5561 H         1 <0>         0.0848
     47 H15         7.6915    2.8628    1.5075 H         1 <0>         0.0724
     48 H16        10.3961    3.2985    2.8546 H         1 <0>         0.0672
     49 H17        10.0369    3.6108    1.1395 H         1 <0>         0.0729
     50 H18        11.0988    1.3956    1.4129 H         1 <0>         0.0783
     51 H19         9.4203    1.2169    0.8462 H         1 <0>         0.0815
     52 H20        11.2293   -1.2058    3.9714 H         1 <0>         0.3954
     53 H21        10.7843   -2.5174    3.0204 H         1 <0>         0.4024
     54 O5         -0.6639    5.1609    5.2831 O.co2     1 <0>        -0.7432
@<TRIPOS>BOND
     1    1    6 ar
     2    1    2 ar
     3    1   34 1
     4    2    3 ar
     5    2   35 1
     6    3    4 ar
     7    3   36 1
     8    4    5 ar
     9    4    7 1
    10    5    6 ar
    11    5   37 1
    12    6   38 1
    13    7   17 1
    14    7    8 am
    15    8    9 2
    16    8   10 1
    17   10   15 ar
    18   10   11 ar
    19   11   12 ar
    20   11   39 1
    21   12   13 ar
    22   12   40 1
    23   13   14 ar
    24   13   32 1
    25   14   15 ar
    26   14   41 1
    27   15   16 1
    28   16   17 2
    29   17   18 1
    30   18   19 1
    31   19   20 1
    32   19   42 1
    33   19   43 1
    34   20   21 2
    35   20   22 am
    36   22   27 1
    37   22   23 1
    38   23   24 1
    39   23   44 1
    40   23   45 1
    41   24   25 1
    42   24   46 1
    43   24   47 1
    44   25   26 1
    45   25   48 1
    46   25   49 1
    47   26   27 1
    48   26   50 1
    49   26   51 1
    50   27   28 1
    51   27   29 1
    52   29   30 2
    53   29   31 am
    54   31   52 1
    55   31   53 1
    56   32   33 2
    57   32   54 1
@<TRIPOS>MOLECULE
ZINC28629062
   47    50     0     0     0
SMALL
USER_CHARGES
2-[2-[(E)-[3-[(2-hydroxyquinoline-4-carbonyl)amino]-4-oxo-2-thioxo-thiazolidin-5-ylidene]methyl]phenoxy]acetic acid
@<TRIPOS>ATOM
      1 C1          0.8266    1.9783   -1.4274 C.ar      1 <0>        -0.1784
      2 C2         -0.0070    1.1298   -0.7167 C.ar      1 <0>        -0.0444
      3 C3         -0.8634    1.6325    0.2441 C.ar      1 <0>        -0.2262
      4 C4         -0.8862    2.9916    0.5124 C.ar      1 <0>         0.1852
      5 C5         -0.0434    3.8563   -0.2049 C.ar      1 <0>        -0.1565
      6 C6          0.8148    3.3333   -1.1794 C.ar      1 <0>        -0.0081
      7 C7         -0.0625    5.2990    0.0652 C.2       1 <0>         0.1546
      8 C8          1.1032    5.9903    0.1447 C.2       1 <0>        -0.2764
      9 C9          2.4933    5.4930    0.1574 C.2       1 <0>         0.5426
     10 O1          2.7478    4.3045    0.0919 O.2       1 <0>        -0.4385
     11 N1          3.4481    6.4043    0.2391 N.am      1 <0>        -0.3199
     12 C10         3.1614    7.7197    0.3193 C.2       1 <0>         0.2737
     13 S1          4.2461    9.0388    0.4388 S.2       1 <0>        -0.3288
     14 S2          1.3768    7.7523    0.2708 S.3       1 <0>         0.1155
     15 N2          4.7875    5.9936    0.2501 N.am      1 <0>        -0.5257
     16 C11         5.4876    6.0090    1.4016 C.2       1 <0>         0.5769
     17 O2          4.9571    6.3792    2.4305 O.2       1 <0>        -0.4864
     18 C12         6.9019    5.5753    1.4131 C.2       1 <0>        -0.0010
     19 C13         7.5641    5.2639    0.2359 C.2       1 <0>        -0.1445
     20 C14         8.9029    4.8567    0.2839 C.2       1 <0>         0.4745
     21 N3          9.5555    4.7606    1.4205 N.am      1 <0>        -0.5589
     22 C15         8.9762    5.0459    2.5907 C.ar      1 <0>         0.1822
     23 C16         7.6258    5.4704    2.6295 C.ar      1 <0>        -0.1103
     24 C17         7.0285    5.7736    3.8596 C.ar      1 <0>        -0.0544
     25 C18         7.7545    5.6619    5.0076 C.ar      1 <0>        -0.1474
     26 C19         9.0848    5.2501    4.9735 C.ar      1 <0>        -0.0498
     27 C20         9.6923    4.9371    3.7964 C.ar      1 <0>        -0.1673
     28 O3          9.5429    4.5540   -0.8726 O.2       1 <0>        -0.6054
     29 O4         -1.7234    3.4857    1.4597 O.3       1 <0>        -0.2816
     30 C21        -2.5509    2.5459    2.1482 C.3       1 <0>         0.0137
     31 C22        -3.4060    3.2721    3.1543 C.2       1 <0>         0.4697
     32 O5         -3.3161    4.4715    3.2698 O.co2     1 <0>        -0.6121
     33 O6         -4.2677    2.5866    3.9220 O.co2     1 <0>        -0.7504
     34 H1          1.4886    1.5754   -2.1796 H         1 <0>         0.1246
     35 H2          0.0094    0.0689   -0.9183 H         1 <0>         0.1264
     36 H3         -1.5131    0.9643    0.7899 H         1 <0>         0.1371
     37 H4          1.4665    3.9908   -1.7356 H         1 <0>         0.1227
     38 H5         -1.0214    5.8200    0.2032 H         1 <0>         0.1725
     39 H6          5.2677    5.6586   -0.6811 H         1 <0>         0.4578
     40 H7          7.0510    5.3352   -0.7118 H         1 <0>         0.1606
     41 H8          5.9980    6.0946    3.8982 H         1 <0>         0.1717
     42 H9          7.2928    5.8960    5.9554 H         1 <0>         0.1348
     43 H10         9.6400    5.1690    5.8963 H         1 <0>         0.1359
     44 H11        10.7244    4.6189    3.7870 H         1 <0>         0.1407
     45 H12        -3.1968    2.0270    1.4246 H         1 <0>         0.0730
     46 H13        -1.9178    1.8112    2.6673 H         1 <0>         0.0716
     47 H14        10.6071    4.4381    1.4253 H         1 <0>         0.4543
@<TRIPOS>BOND
     1    1    6 ar
     2    1    2 ar
     3    1   34 1
     4    2    3 ar
     5    2   35 1
     6    3    4 ar
     7    3   36 1
     8    4    5 ar
     9    4   29 1
    10    5    6 ar
    11    5    7 1
    12    6   37 1
    13    7    8 2
    14    7   38 1
    15    8   14 1
    16    8    9 1
    17    9   10 2
    18    9   11 am
    19   11   12 1
    20   11   15 1
    21   12   13 2
    22   12   14 1
    23   15   16 am
    24   15   39 1
    25   16   17 2
    26   16   18 1
    27   18   23 1
    28   18   19 2
    29   19   20 1
    30   19   40 1
    31   20   21 am
    32   20   28 2
    33   21   22 1
    34   21   47 1
    35   22   27 ar
    36   22   23 ar
    37   23   24 ar
    38   24   25 ar
    39   24   41 1
    40   25   26 ar
    41   25   42 1
    42   26   27 ar
    43   26   43 1
    44   27   44 1
    45   29   30 1
    46   30   31 1
    47   30   45 1
    48   30   46 1
    49   31   32 2
    50   31   33 1
@<TRIPOS>MOLECULE
ZINC39680513
   61    64     0     0     0
SMALL
USER_CHARGES

@<TRIPOS>ATOM
      1 C1         -0.0187    1.5258    0.0104 C.3       1 <0>        -0.1484
      2 C2          0.0021   -0.0041    0.0020 C.3       1 <0>        -0.1386
      3 C3         -1.4333   -0.5336    0.0129 C.3       1 <0>         0.0972
      4 N1         -1.4134   -1.9985    0.0048 N.am      1 <0>        -0.5735
      5 C4         -1.4101   -2.6655   -1.1901 C.2       1 <0>         0.5483
      6 O1         -1.4933   -2.1099   -2.2647 O.2       1 <0>        -0.4793
      7 C5         -1.2918   -4.1624   -1.0357 C.3       1 <0>        -0.1206
      8 H1         -2.2381   -4.5710   -0.6812 H         1 <0>         0.1343
      9 C6         -0.8167   -4.9435   -2.2152 C.2       1 <0>        -0.1629
     10 C7         -0.0727   -6.0311   -1.9757 C.2       1 <0>        -0.0822
     11 S1          0.1503   -6.0685   -0.1918 S.3       1 <0>        -0.1142
     12 C8         -0.1999   -4.3103    0.0822 C.3       1 <0>         0.1006
     13 H2          0.6750   -3.7112   -0.1705 H         1 <0>         0.1011
     14 N2         -0.7735   -3.8573    1.3018 N.2       1 <0>        -0.5120
     15 C9         -1.3926   -2.6879    1.2091 C.2       1 <0>         0.3502
     16 S2         -2.1975   -2.0112    2.6229 S.3       1 <0>         0.0808
     17 C10        -1.9051   -3.2402    3.9246 C.3       1 <0>        -0.1403
     18 C11        -2.5501   -2.7781    5.2058 C.2       1 <0>         0.5289
     19 O2         -3.1481   -1.7235    5.2377 O.2       1 <0>        -0.5354
     20 N3         -2.4623   -3.5368    6.3163 N.am      1 <0>        -0.6768
     21 C12        -3.0893   -3.0876    7.5618 C.3       1 <0>         0.0868
     22 H3         -4.0138   -2.5577    7.3326 H         1 <0>         0.0836
     23 C13        -3.4010   -4.2997    8.4420 C.3       1 <0>        -0.0417
     24 C14        -4.4347   -5.1608    7.7632 C.2       1 <0>        -0.1515
     25 C15        -4.1822   -6.1984    6.7604 C.ar      1 <0>        -0.0943
     26 C16        -3.0305   -6.6986    6.1505 C.ar      1 <0>        -0.0705
     27 C17        -3.1326   -7.6999    5.2260 C.ar      1 <0>        -0.1477
     28 C18        -4.3726   -8.2236    4.8881 C.ar      1 <0>        -0.1025
     29 C19        -5.5222   -7.7447    5.4779 C.ar      1 <0>        -0.1333
     30 C20        -5.4417   -6.7263    6.4216 C.ar      1 <0>         0.0942
     31 N4         -6.3797   -6.0509    7.1699 N.pl3     1 <0>        -0.5977
     32 C21        -5.7611   -5.1266    7.9671 C.2       1 <0>         0.0454
     33 C22        -2.1491   -2.1643    8.2930 C.2       1 <0>         0.4918
     34 O3         -2.5940   -1.2782    9.0025 O.co2     1 <0>        -0.6918
     35 O4         -0.9436   -2.3034    8.1750 O.co2     1 <0>        -0.6887
     36 C23         0.4625   -7.0137   -2.9852 C.3       1 <0>        -0.0508
     37 C24         1.8918   -6.6244   -3.3676 C.3       1 <0>        -0.1491
     38 H4          1.0039    1.9031    0.0027 H         1 <0>         0.0605
     39 H5         -0.5459    1.8868   -0.8726 H         1 <0>         0.0568
     40 H6         -0.5289    1.8773    0.9072 H         1 <0>         0.0635
     41 H7          0.5123   -0.3556   -0.8948 H         1 <0>         0.0636
     42 H8          0.5293   -0.3651    0.8851 H         1 <0>         0.0701
     43 H9         -1.9435   -0.1821    0.9097 H         1 <0>         0.0986
     44 H10        -1.9605   -0.1726   -0.8702 H         1 <0>         0.0964
     45 H11        -1.0636   -4.6435   -3.2229 H         1 <0>         0.1437
     46 H12        -2.3354   -4.1959    3.6253 H         1 <0>         0.1227
     47 H13        -0.8325   -3.3573    4.0795 H         1 <0>         0.1260
     48 H14        -1.9839   -4.3803    6.2909 H         1 <0>         0.3926
     49 H15        -2.4910   -4.8791    8.5978 H         1 <0>         0.0738
     50 H16        -3.7852   -3.9609    9.4041 H         1 <0>         0.0863
     51 H17        -2.0622   -6.2954    6.4080 H         1 <0>         0.1189
     52 H18        -2.2412   -8.0865    4.7544 H         1 <0>         0.1205
     53 H19        -4.4372   -9.0142    4.1552 H         1 <0>         0.1202
     54 H20        -6.4825   -8.1586    5.2079 H         1 <0>         0.1144
     55 H21        -6.2655   -4.4655    8.6561 H         1 <0>         0.1701
     56 H22        -7.3361   -6.2094    7.1395 H         1 <0>         0.4123
     57 H23         0.4616   -8.0147   -2.5538 H         1 <0>         0.0824
     58 H24        -0.1679   -7.0007   -3.8744 H         1 <0>         0.0850
     59 H25         1.8927   -5.6234   -3.7990 H         1 <0>         0.0571
     60 H26         2.5222   -6.6373   -2.4785 H         1 <0>         0.0618
     61 H27         2.2790   -7.3351   -4.0978 H         1 <0>         0.0637
@<TRIPOS>BOND
     1    1    2 1
     2    1   38 1
     3    1   39 1
     4    1   40 1
     5    2    3 1
     6    2   41 1
     7    2   42 1
     8    3    4 1
     9    3   43 1
    10    3   44 1
    11    4   15 1
    12    4    5 am
    13    5    6 2
    14    5    7 1
    15    7    8 1
    16    7   12 1
    17    7    9 1
    18    9   10 2
    19    9   45 1
    20   10   11 1
    21   10   36 1
    22   11   12 1
    23   12   13 1
    24   12   14 1
    25   14   15 2
    26   15   16 1
    27   16   17 1
    28   17   18 1
    29   17   46 1
    30   17   47 1
    31   18   19 2
    32   18   20 am
    33   20   21 1
    34   20   48 1
    35   21   22 1
    36   21   23 1
    37   21   33 1
    38   23   49 1
    39   23   50 1
    40   23   24 1
    41   24   25 1
    42   24   32 2
    43   25   26 ar
    44   25   30 ar
    45   26   27 ar
    46   26   51 1
    47   27   28 ar
    48   27   52 1
    49   28   29 ar
    50   28   53 1
    51   29   30 ar
    52   29   54 1
    53   30   31 1
    54   31   56 1
    55   31   32 1
    56   32   55 1
    57   33   34 2
    58   33   35 1
    59   36   37 1
    60   36   57 1
    61   36   58 1
    62   37   59 1
    63   37   60 1
    64   37   61 1
@<TRIPOS>MOLECULE
ZINC48331846
   41    42     0     0     0
SMALL
USER_CHARGES

@<TRIPOS>ATOM
      1 C1         -0.0167    1.3780    0.0096 C.ar      1 <0>        -0.0768
      2 C2          1.1691    2.0888    0.0021 C.ar      1 <0>        -0.1892
      3 C3          2.3799    1.4210   -0.0131 C.ar      1 <0>        -0.1426
      4 C4          2.4074    0.0363   -0.0208 C.ar      1 <0>         0.0256
      5 C5          1.2130   -0.6808   -0.0132 C.ar      1 <0>         0.2813
      6 C6          0.0021   -0.0041    0.0020 C.ar      1 <0>        -0.2404
      7 N1          1.2346   -2.0803   -0.0214 N.2       1 <0>        -1.0738
      8 S1         -0.1865   -2.9304   -0.0124 S.o2      1 <0>         2.5940
      9 O1         -0.8056   -2.6734    1.2405 O.2       1 <0>        -1.0200
     10 O2         -0.8299   -2.6591   -1.2500 O.2       1 <0>        -1.0205
     11 C7          0.2305   -4.6423   -0.0263 C.ar      1 <0>        -0.5568
     12 C8          0.3879   -5.3057   -1.2288 C.ar      1 <0>        -0.0453
     13 C9          0.7151   -6.6487   -1.2397 C.ar      1 <0>        -0.0442
     14 C10         0.8852   -7.3283   -0.0480 C.ar      1 <0>        -0.6445
     15 C11         0.7287   -6.6648    1.1545 C.ar      1 <0>        -0.0436
     16 C12         0.4058   -5.3207    1.1654 C.ar      1 <0>        -0.0448
     17 S2          1.3011   -9.0405   -0.0619 S.o2      1 <0>         2.7033
     18 O3          0.8689   -9.5734    1.1825 O.2       1 <0>        -0.9634
     19 O4          0.8543   -9.5568   -1.3081 O.2       1 <0>        -0.9636
     20 N2          2.9539   -9.1429   -0.0723 N.pl3     1 <0>        -1.2492
     21 O5          3.5975   -0.6219   -0.0361 O.3       1 <0>        -0.2685
     22 C13         4.7814    0.1784   -0.0436 C.3       1 <0>         0.4106
     23 C14         6.0117   -0.7310   -0.0607 C.3       1 <0>         0.0491
     24 H1          5.9896   -1.3554   -0.9539 H         1 <0>         0.1692
     25 C15         7.2792    0.1259   -0.0687 C.3       1 <0>         0.4390
     26 F1          7.3076    0.9272    1.0777 F         1 <0>        -0.1588
     27 F2          8.4041   -0.7057   -0.0844 F         1 <0>        -0.1608
     28 F3          7.2849    0.9395   -1.2068 F         1 <0>        -0.1571
     29 F4          6.0060   -1.5447    1.0773 F         1 <0>        -0.1398
     30 F5          4.7871    0.9921   -1.1816 F         1 <0>        -0.1758
     31 F6          4.8098    0.9798    1.1028 F         1 <0>        -0.1764
     32 H2         -0.9599    1.9039    0.0260 H         1 <0>         0.1112
     33 H3          1.1497    3.1687    0.0078 H         1 <0>         0.1123
     34 H4          3.3044    1.9793   -0.0192 H         1 <0>         0.1178
     35 H5         -0.9257   -0.5569    0.0083 H         1 <0>         0.1094
     36 H6          0.2550   -4.7747   -2.1598 H         1 <0>         0.1491
     37 H7          0.8374   -7.1671   -2.1792 H         1 <0>         0.1477
     38 H8          0.8613   -7.1958    2.0855 H         1 <0>         0.1479
     39 H9          0.2871   -4.8014    2.1049 H         1 <0>         0.1494
     40 H10         3.4899   -8.3344   -0.0700 H         1 <0>         0.4193
     41 H11         3.3860  -10.0113   -0.0806 H         1 <0>         0.4198
@<TRIPOS>BOND
     1    1    6 ar
     2    1    2 ar
     3    1   32 1
     4    2    3 ar
     5    2   33 1
     6    3    4 ar
     7    3   34 1
     8    4    5 ar
     9    4   21 1
    10    5    6 ar
    11    5    7 1
    12    6   35 1
    13    7    8 1
    14    8    9 2
    15    8   10 2
    16    8   11 1
    17   11   16 ar
    18   11   12 ar
    19   12   13 ar
    20   12   36 1
    21   13   14 ar
    22   13   37 1
    23   14   15 ar
    24   14   17 1
    25   15   16 ar
    26   15   38 1
    27   16   39 1
    28   17   18 2
    29   17   19 2
    30   17   20 1
    31   20   40 1
    32   20   41 1
    33   21   22 1
    34   22   23 1
    35   22   30 1
    36   22   31 1
    37   23   24 1
    38   23   25 1
    39   23   29 1
    40   25   26 1
    41   25   27 1
    42   25   28 1
@<TRIPOS>MOLECULE
ZINC08850473
   59    63     0     0     0
SMALL
USER_CHARGES
5,5-dibenzyl-3-[(3-oxo-2,4-dihydroquinoxalin-1-yl)carbonylmethyl]imidazolidine-2,4-dione
@<TRIPOS>ATOM
      1 C1          2.3960    0.0285   -0.0217 C.ar      1 <0>        -0.1111
      2 C2          1.2084   -0.6789   -0.0136 C.ar      1 <0>        -0.1189
      3 C3          0.0021   -0.0041    0.0020 C.ar      1 <0>        -0.1065
      4 C4         -0.0167    1.3781    0.0096 C.ar      1 <0>        -0.1022
      5 C5          1.1709    2.0855    0.0021 C.ar      1 <0>        -0.0950
      6 C6          2.3773    1.4107   -0.0141 C.ar      1 <0>        -0.0791
      7 C7         -1.3319    2.1138    0.0199 C.3       1 <0>        -0.0748
      8 C8         -1.7701    2.3549    1.4658 C.3       1 <0>         0.1369
      9 C9         -0.7366    3.1810    2.2056 C.2       1 <0>         0.5488
     10 O1         -0.3747    4.3077    1.9423 O.2       1 <0>        -0.4625
     11 N1         -0.3031    2.4020    3.2163 N.am      1 <0>        -0.5553
     12 C10        -0.9127    1.2110    3.2178 C.2       1 <0>         0.7187
     13 O2         -0.6882    0.3383    4.0333 O.2       1 <0>        -0.5403
     14 N2         -1.8019    1.0875    2.2159 N.am      1 <0>        -0.7097
     15 C11         0.7110    2.8088    4.1922 C.3       1 <0>         0.1013
     16 C12         2.0776    2.4251    3.6861 C.2       1 <0>         0.5031
     17 O3          2.1932    1.8667    2.6155 O.2       1 <0>        -0.4727
     18 N3          3.1715    2.7023    4.4231 N.am      1 <0>        -0.5573
     19 C13         3.0590    3.3838    5.7213 C.3       1 <0>         0.0878
     20 C14         4.1508    4.4114    5.8370 C.2       1 <0>         0.5136
     21 O4          3.9699    5.4034    6.5112 O.2       1 <0>        -0.5104
     22 N4          5.3249    4.2457    5.1992 N.am      1 <0>        -0.6551
     23 C15         5.5405    3.1359    4.3750 C.ar      1 <0>         0.1283
     24 C16         4.4549    2.3550    3.9732 C.ar      1 <0>         0.1139
     25 C17         4.6514    1.2622    3.1489 C.ar      1 <0>        -0.0869
     26 C18         5.9297    0.9427    2.7256 C.ar      1 <0>        -0.1191
     27 C19         7.0068    1.7121    3.1250 C.ar      1 <0>        -0.0987
     28 C20         6.8168    2.8072    3.9482 C.ar      1 <0>        -0.1331
     29 C21        -3.1386    3.0381    1.5050 C.3       1 <0>        -0.0762
     30 C22        -3.5464    3.2639    2.9381 C.ar      1 <0>        -0.1005
     31 C23        -4.2726    2.2987    3.6103 C.ar      1 <0>        -0.1023
     32 C24        -4.6426    2.5037    4.9263 C.ar      1 <0>        -0.1171
     33 C25        -4.2954    3.6784    5.5669 C.ar      1 <0>        -0.1153
     34 C26        -3.5737    4.6459    4.8930 C.ar      1 <0>        -0.1173
     35 C27        -3.1992    4.4386    3.5786 C.ar      1 <0>        -0.1161
     36 H1          3.3385   -0.4987   -0.0343 H         1 <0>         0.1147
     37 H2          1.2231   -1.7587   -0.0199 H         1 <0>         0.1161
     38 H3         -0.9258   -0.5567    0.0079 H         1 <0>         0.1140
     39 H4          1.1563    3.1654    0.0081 H         1 <0>         0.1115
     40 H5          3.3051    1.9634   -0.0207 H         1 <0>         0.1127
     41 H6         -1.2169    3.0707   -0.4893 H         1 <0>         0.0975
     42 H7         -2.0859    1.5173   -0.4937 H         1 <0>         0.0964
     43 H8         -2.3556    0.3145    2.0244 H         1 <0>         0.4386
     44 H9          0.6661    3.8886    4.3342 H         1 <0>         0.1262
     45 H10         0.5219    2.3092    5.1423 H         1 <0>         0.1307
     46 H11         2.0882    3.8744    5.7928 H         1 <0>         0.1284
     47 H12         3.1610    2.6553    6.5257 H         1 <0>         0.1181
     48 H13         6.0290    4.9033    5.3120 H         1 <0>         0.4167
     49 H14         3.8106    0.6607    2.8364 H         1 <0>         0.1495
     50 H15         6.0864    0.0898    2.0818 H         1 <0>         0.1308
     51 H16         8.0020    1.4567    2.7921 H         1 <0>         0.1317
     52 H17         7.6616    3.4046    4.2577 H         1 <0>         0.1341
     53 H18        -3.0813    3.9961    0.9883 H         1 <0>         0.1007
     54 H19        -3.8757    2.4035    1.0131 H         1 <0>         0.0987
     55 H20        -4.5477    1.3828    3.1084 H         1 <0>         0.1211
     56 H21        -5.2068    1.7480    5.4527 H         1 <0>         0.1232
     57 H22        -4.5883    3.8405    6.5937 H         1 <0>         0.1228
     58 H23        -3.3027    5.5638    5.3934 H         1 <0>         0.1234
     59 H24        -2.6357    5.1946    3.0521 H         1 <0>         0.1236
@<TRIPOS>BOND
     1    1    6 ar
     2    1    2 ar
     3    1   36 1
     4    2    3 ar
     5    2   37 1
     6    3    4 ar
     7    3   38 1
     8    4    5 ar
     9    4    7 1
    10    5    6 ar
    11    5   39 1
    12    6   40 1
    13    7    8 1
    14    7   41 1
    15    7   42 1
    16    8   14 1
    17    8    9 1
    18    8   29 1
    19    9   10 2
    20    9   11 am
    21   11   12 am
    22   11   15 1
    23   12   13 2
    24   12   14 am
    25   14   43 1
    26   15   16 1
    27   15   44 1
    28   15   45 1
    29   16   17 2
    30   16   18 am
    31   18   24 1
    32   18   19 1
    33   19   20 1
    34   19   46 1
    35   19   47 1
    36   20   21 2
    37   20   22 am
    38   22   23 1
    39   22   48 1
    40   23   28 ar
    41   23   24 ar
    42   24   25 ar
    43   25   26 ar
    44   25   49 1
    45   26   27 ar
    46   26   50 1
    47   27   28 ar
    48   27   51 1
    49   28   52 1
    50   29   30 1
    51   29   53 1
    52   29   54 1
    53   30   35 ar
    54   30   31 ar
    55   31   32 ar
    56   31   55 1
    57   32   33 ar
    58   32   56 1
    59   33   34 ar
    60   33   57 1
    61   34   35 ar
    62   34   58 1
    63   35   59 1
@<TRIPOS>MOLECULE
ZINC11789659
   59    64     0     0     0
SMALL
USER_CHARGES
(2R)-N-(1,3-benzodioxol-5-yl)-6-[3-(5-fluoro-1H-benzimidazol-2-yl)propanoyl]-6-azaspiro[2.5]octane-2-carboxamide
@<TRIPOS>ATOM
      1 C1         -5.9159   -5.4117   -4.4613 C.ar      1 <0>        -0.1085
      2 C2         -4.9707   -6.3555   -4.8165 C.ar      1 <0>        -0.0785
      3 C3         -4.9596   -7.5949   -4.1983 C.ar      1 <0>         0.0183
      4 C4         -5.9025   -7.8907   -3.2162 C.ar      1 <0>         0.0537
      5 C5         -6.8456   -6.9428   -2.8573 C.ar      1 <0>        -0.1269
      6 C6         -6.8568   -5.7036   -3.4836 C.ar      1 <0>         0.1574
      7 N1         -7.8143   -4.7459   -3.1246 N.am      1 <0>        -0.6662
      8 C7         -8.3143   -3.9106   -4.0566 C.2       1 <0>         0.5483
      9 O1         -8.0092   -4.0501   -5.2222 O.2       1 <0>        -0.5123
     10 C8         -9.2524   -2.8033   -3.6505 C.3       1 <0>        -0.1837
     11 H1        -10.1808   -3.1232   -3.1774 H         1 <0>         0.1343
     12 C9         -9.3049   -1.5596   -4.5406 C.3       1 <0>        -0.1319
     13 C10        -8.6309   -1.4924   -3.1704 C.3       1 <0>        -0.0990
     14 C11        -9.3545   -0.7260   -2.0589 C.3       1 <0>        -0.0977
     15 C12        -8.9042    0.7394   -2.0961 C.3       1 <0>         0.1138
     16 N2         -7.4365    0.7839   -2.0952 N.am      1 <0>        -0.6105
     17 C13        -6.6970    0.0834   -3.1528 C.3       1 <0>         0.1098
     18 C14        -7.1023   -1.4001   -3.1337 C.3       1 <0>        -0.1042
     19 C15        -6.7758    1.4647   -1.1378 C.2       1 <0>         0.5189
     20 O2         -7.3937    2.0451   -0.2704 O.2       1 <0>        -0.5392
     21 C16        -5.2694    1.5048   -1.1451 C.3       1 <0>        -0.1331
     22 C17        -4.7756    2.3375    0.0397 C.3       1 <0>        -0.0268
     23 C18        -3.2691    2.3775    0.0324 C.2       1 <0>         0.2970
     24 N3         -2.5198    3.5126    0.0480 N.pl3     1 <0>        -0.5972
     25 H2         -2.8654    4.4508    0.0671 H         1 <0>         0.4320
     26 C19        -1.1926    3.1288    0.0325 C.ar      1 <0>         0.0362
     27 C20         0.0115    3.8195    0.0246 C.ar      1 <0>        -0.0781
     28 C21         1.2013    3.1242    0.0081 C.ar      1 <0>        -0.1338
     29 C22         1.2045    1.7344   -0.0005 C.ar      1 <0>         0.0947
     30 C23         0.0188    1.0328    0.0072 C.ar      1 <0>        -0.1036
     31 C24        -1.1960    1.7241    0.0180 C.ar      1 <0>         0.0753
     32 N4         -2.4957    1.3312    0.0220 N.2       1 <0>        -0.4883
     33 F1          2.3788    1.0666   -0.0170 F         1 <0>        -0.1350
     34 O3         -5.6815   -9.1609   -2.7676 O.3       1 <0>        -0.3074
     35 C25        -4.8559   -9.7844   -3.7690 C.3       1 <0>         0.2135
     36 O4         -4.1479   -8.6810   -4.3643 O.3       1 <0>        -0.3072
     37 H3         -5.9225   -4.4462   -4.9451 H         1 <0>         0.1469
     38 H4         -4.2397   -6.1263   -5.5778 H         1 <0>         0.1411
     39 H5         -7.5749   -7.1686   -2.0934 H         1 <0>         0.1394
     40 H6         -8.1173   -4.6840   -2.2052 H         1 <0>         0.4145
     41 H7        -10.2678   -1.0613   -4.6530 H         1 <0>         0.1080
     42 H8         -8.6609   -1.5423   -5.4198 H         1 <0>         0.1084
     43 H9         -9.1031   -1.1611   -1.0916 H         1 <0>         0.0761
     44 H10       -10.4318   -0.7813   -2.2155 H         1 <0>         0.0823
     45 H11        -9.2861    1.2613   -1.2187 H         1 <0>         0.0981
     46 H12        -9.2835    1.2152   -3.0005 H         1 <0>         0.0716
     47 H13        -6.9430    0.5196   -4.1209 H         1 <0>         0.0766
     48 H14        -5.6260    0.1735   -2.9708 H         1 <0>         0.0919
     49 H15        -6.7295   -1.8715   -2.2244 H         1 <0>         0.0779
     50 H16        -6.6848   -1.9029   -4.0061 H         1 <0>         0.0796
     51 H17        -4.9223    1.9548   -2.0752 H         1 <0>         0.0969
     52 H18        -4.8785    0.4904   -1.0642 H         1 <0>         0.1109
     53 H19        -5.1226    1.8875    0.9698 H         1 <0>         0.1083
     54 H20        -5.1664    3.3518   -0.0412 H         1 <0>         0.0941
     55 H21         0.0158    4.8994    0.0316 H         1 <0>         0.1352
     56 H22         2.1373    3.6629    0.0023 H         1 <0>         0.1449
     57 H23         0.0278   -0.0471    0.0005 H         1 <0>         0.1434
     58 H24        -5.4718  -10.2901   -4.5126 H         1 <0>         0.0861
     59 H25        -4.1579  -10.4837   -3.3087 H         1 <0>         0.1338
@<TRIPOS>BOND
     1    1    6 ar
     2    1    2 ar
     3    1   37 1
     4    2    3 ar
     5    2   38 1
     6    3   36 1
     7    3    4 ar
     8    4    5 ar
     9    4   34 1
    10    5    6 ar
    11    5   39 1
    12    6    7 1
    13    7    8 am
    14    7   40 1
    15    8    9 2
    16    8   10 1
    17   10   11 1
    18   10   13 1
    19   10   12 1
    20   12   13 1
    21   12   41 1
    22   12   42 1
    23   13   18 1
    24   13   14 1
    25   14   15 1
    26   14   43 1
    27   14   44 1
    28   15   16 1
    29   15   45 1
    30   15   46 1
    31   16   17 1
    32   16   19 am
    33   17   18 1
    34   17   47 1
    35   17   48 1
    36   18   49 1
    37   18   50 1
    38   19   20 2
    39   19   21 1
    40   21   22 1
    41   21   51 1
    42   21   52 1
    43   22   23 1
    44   22   53 1
    45   22   54 1
    46   23   32 2
    47   23   24 1
    48   24   25 1
    49   24   26 1
    50   26   31 ar
    51   26   27 ar
    52   27   28 ar
    53   27   55 1
    54   28   29 ar
    55   28   56 1
    56   29   30 ar
    57   29   33 1
    58   30   31 ar
    59   30   57 1
    60   31   32 1
    61   34   35 1
    62   35   36 1
    63   35   58 1
    64   35   59 1
@<TRIPOS>MOLECULE
ZINC15670789
   59    62     0     0     0
SMALL
USER_CHARGES
(2R)-2-[3-(2-acetamidophenyl)-2-oxo-quinoxalin-1-yl]-N-(4-acetylphenyl)propanamide
@<TRIPOS>ATOM
      1 C1         -8.7840    3.9090    0.2168 C.3       1 <0>        -0.1718
      2 C2         -8.2421    2.4973   -0.0167 C.3       1 <0>         0.1122
      3 H1         -8.4516    2.1928   -1.0421 H         1 <0>         0.1337
      4 C3         -8.9077    1.5396    0.9377 C.2       1 <0>         0.5090
      5 O1         -8.2389    0.9097    1.7293 O.2       1 <0>        -0.4868
      6 N1        -10.2460    1.3831    0.9114 N.am      1 <0>        -0.6686
      7 C4        -10.8715    0.5747    1.8580 C.ar      1 <0>         0.1782
      8 C5        -12.1217    0.9303    2.3569 C.ar      1 <0>        -0.1555
      9 C6        -12.7431    0.1354    3.2849 C.ar      1 <0>        -0.0524
     10 C7        -12.1136   -1.0304    3.7390 C.ar      1 <0>        -0.1876
     11 C8        -10.8536   -1.3814    3.2382 C.ar      1 <0>        -0.0393
     12 C9        -10.2421   -0.5832    2.3065 C.ar      1 <0>        -0.1328
     13 C10       -12.7729   -1.8825    4.7368 C.2       1 <0>         0.3939
     14 O2        -12.1835   -2.8323    5.2078 O.2       1 <0>        -0.4581
     15 C11       -14.1818   -1.5769    5.1758 C.3       1 <0>        -0.1928
     16 N2         -6.7948    2.4861    0.2101 N.am      1 <0>        -0.5016
     17 C12        -5.9339    2.0496   -0.7790 C.ar      1 <0>         0.1553
     18 C13        -6.4356    1.6158   -2.0021 C.ar      1 <0>        -0.1699
     19 C14        -5.5709    1.1815   -2.9834 C.ar      1 <0>        -0.0507
     20 C15        -4.2000    1.1735   -2.7620 C.ar      1 <0>        -0.1441
     21 C16        -3.6854    1.5938   -1.5705 C.ar      1 <0>        -0.0276
     22 C17        -4.5444    2.0411   -0.5539 C.ar      1 <0>         0.0245
     23 N3         -4.0369    2.4553    0.6217 N.2       1 <0>        -0.3863
     24 C18        -4.8214    2.8772    1.5851 C.2       1 <0>         0.1554
     25 C19        -6.2834    2.8974    1.3910 C.2       1 <0>         0.5087
     26 O3         -7.0187    3.2829    2.2809 O.2       1 <0>        -0.4765
     27 C20        -4.2402    3.3266    2.8676 C.ar      1 <0>        -0.0722
     28 C21        -3.5690    2.4202    3.6898 C.ar      1 <0>        -0.0576
     29 C22        -3.0284    2.8454    4.8849 C.ar      1 <0>        -0.1407
     30 C23        -3.1478    4.1692    5.2744 C.ar      1 <0>        -0.0807
     31 C24        -3.8052    5.0778    4.4683 C.ar      1 <0>        -0.1384
     32 C25        -4.3596    4.6658    3.2650 C.ar      1 <0>         0.1888
     33 N4         -5.0280    5.5814    2.4512 N.am      1 <0>        -0.6653
     34 C26        -5.5413    6.7077    2.9845 C.2       1 <0>         0.5135
     35 O4         -5.5081    6.8803    4.1846 O.2       1 <0>        -0.5160
     36 C27        -6.1565    7.7527    2.0897 C.3       1 <0>        -0.1717
     37 H2         -9.8608    3.9174    0.0480 H         1 <0>         0.0833
     38 H3         -8.5746    4.2136    1.2422 H         1 <0>         0.0940
     39 H4         -8.3026    4.6017   -0.4735 H         1 <0>         0.0780
     40 H5        -10.7738    1.8333    0.2334 H         1 <0>         0.4141
     41 H6        -12.6043    1.8318    2.0095 H         1 <0>         0.1343
     42 H7        -13.7147    0.4099    3.6684 H         1 <0>         0.1401
     43 H8        -10.3647   -2.2797    3.5853 H         1 <0>         0.1375
     44 H9         -9.2706   -0.8532    1.9195 H         1 <0>         0.1417
     45 H10       -14.5438   -0.8203    4.6314 H         1 <0>         0.0743
     46 H11       -14.8063   -2.4588    5.0328 H         1 <0>         0.0943
     47 H12       -14.1818   -1.2987    6.2297 H         1 <0>         0.0962
     48 H13        -7.5005    1.6197   -2.1823 H         1 <0>         0.1350
     49 H14        -5.9625    0.8452   -3.9321 H         1 <0>         0.1389
     50 H15        -3.5347    0.8307   -3.5406 H         1 <0>         0.1394
     51 H16        -2.6176    1.5827   -1.4094 H         1 <0>         0.1461
     52 H17        -3.4734    1.3869    3.3904 H         1 <0>         0.1278
     53 H18        -2.5093    2.1429    5.5201 H         1 <0>         0.1296
     54 H19        -2.7210    4.4936    6.2119 H         1 <0>         0.1302
     55 H20        -3.8907    6.1093    4.7765 H         1 <0>         0.1534
     56 H21        -5.1232    5.4072    1.5017 H         1 <0>         0.4041
     57 H22        -5.3904    8.4647    1.7826 H         1 <0>         0.1006
     58 H23        -6.9436    8.2772    2.6314 H         1 <0>         0.1004
     59 H24        -6.5803    7.2722    1.2080 H         1 <0>         0.0786
@<TRIPOS>BOND
     1    1    2 1
     2    1   37 1
     3    1   38 1
     4    1   39 1
     5    2    3 1
     6    2    4 1
     7    2   16 1
     8    4    5 2
     9    4    6 am
    10    6    7 1
    11    6   40 1
    12    7   12 ar
    13    7    8 ar
    14    8    9 ar
    15    8   41 1
    16    9   10 ar
    17    9   42 1
    18   10   11 ar
    19   10   13 1
    20   11   12 ar
    21   11   43 1
    22   12   44 1
    23   13   14 2
    24   13   15 1
    25   15   45 1
    26   15   46 1
    27   15   47 1
    28   16   25 am
    29   16   17 1
    30   17   22 ar
    31   17   18 ar
    32   18   19 ar
    33   18   48 1
    34   19   20 ar
    35   19   49 1
    36   20   21 ar
    37   20   50 1
    38   21   22 ar
    39   21   51 1
    40   22   23 1
    41   23   24 2
    42   24   25 1
    43   24   27 1
    44   25   26 2
    45   27   32 ar
    46   27   28 ar
    47   28   29 ar
    48   28   52 1
    49   29   30 ar
    50   29   53 1
    51   30   31 ar
    52   30   54 1
    53   31   32 ar
    54   31   55 1
    55   32   33 1
    56   33   34 am
    57   33   56 1
    58   34   35 2
    59   34   36 1
    60   36   57 1
    61   36   58 1
    62   36   59 1
@<TRIPOS>MOLECULE
ZINC18145988
   58    62     0     0     0
SMALL
USER_CHARGES
2-[[(E)-[2-(1,3-benzodioxol-5-yl)-1,3-dioxo-4-isoquinolylidene]methyl]amino]-N-propyl-benzamide
@<TRIPOS>ATOM
      1 C1          2.0415    5.5697    0.1464 C.3       1 <0>        -0.1532
      2 C2          2.3514    4.4580    1.1509 C.3       1 <0>        -0.1367
      3 C3          1.2611    4.4213    2.2236 C.3       1 <0>         0.1159
      4 N1          1.5579    3.3567    3.1853 N.am      1 <0>        -0.7257
      5 C4          0.7285    3.1372    4.2248 C.2       1 <0>         0.5722
      6 O1         -0.2660    3.8227    4.3643 O.2       1 <0>        -0.5505
      7 C5          1.0274    2.0654    5.1931 C.ar      1 <0>        -0.1859
      8 C6          2.0994    1.1977    4.9722 C.ar      1 <0>        -0.0474
      9 C7          2.3767    0.2016    5.8833 C.ar      1 <0>        -0.1521
     10 C8          1.5905    0.0487    7.0141 C.ar      1 <0>        -0.0471
     11 C9          0.5245    0.8945    7.2434 C.ar      1 <0>        -0.1777
     12 C10         0.2329    1.9076    6.3390 C.ar      1 <0>         0.2105
     13 N2         -0.8408    2.7617    6.5681 N.pl3     1 <0>        -0.6344
     14 C11        -1.5271    2.6922    7.7411 C.2       1 <0>         0.2716
     15 C12        -2.6812    3.4245    7.9080 C.2       1 <0>        -0.3138
     16 C13        -3.5131    3.8084    6.7484 C.ar      1 <0>         0.0439
     17 C14        -3.1764    3.4378    5.4517 C.ar      1 <0>        -0.1678
     18 C15        -3.9890    3.8161    4.4026 C.ar      1 <0>        -0.0558
     19 C16        -5.1402    4.5552    4.6335 C.ar      1 <0>        -0.1501
     20 C17        -5.4938    4.9264    5.9128 C.ar      1 <0>        -0.0285
     21 C18        -4.6858    4.5546    6.9878 C.ar      1 <0>        -0.1650
     22 C19        -5.0264    4.9289    8.3663 C.2       1 <0>         0.5700
     23 O2         -6.0336    5.5772    8.5784 O.2       1 <0>        -0.4907
     24 N3         -4.2449    4.5671    9.3969 N.am      1 <0>        -0.5092
     25 C20        -3.1186    3.8524    9.2421 C.2       1 <0>         0.5848
     26 O3         -2.4536    3.5566   10.2181 O.2       1 <0>        -0.5072
     27 C21        -4.6213    4.9532   10.6914 C.ar      1 <0>         0.1284
     28 C22        -4.8066    6.2965   10.9889 C.ar      1 <0>        -0.0813
     29 C23        -5.1779    6.6785   12.2637 C.ar      1 <0>        -0.0897
     30 C24        -5.3660    5.7224   13.2489 C.ar      1 <0>         0.0400
     31 C25        -5.1803    4.3739   12.9535 C.ar      1 <0>         0.0417
     32 C26        -4.8142    3.9918   11.6737 C.ar      1 <0>        -0.0749
     33 O4         -5.4247    3.6427   14.0800 O.3       1 <0>        -0.3071
     34 C27        -6.1573    4.5195   14.9562 C.3       1 <0>         0.2087
     35 O5         -5.7269    5.8355   14.5613 O.3       1 <0>        -0.3018
     36 H1          2.8254    5.5960   -0.6248 H         1 <0>         0.0628
     37 H2          2.0085    6.5372    0.6688 H         1 <0>         0.0593
     38 H3          1.0678    5.3751   -0.3270 H         1 <0>         0.0593
     39 H4          2.3844    3.4905    0.6285 H         1 <0>         0.0707
     40 H5          3.3251    4.6525    1.6243 H         1 <0>         0.0707
     41 H6          1.2281    5.3887    2.7461 H         1 <0>         0.0720
     42 H7          0.2874    4.2269    1.7502 H         1 <0>         0.0723
     43 H8          2.4576    2.7366    3.0590 H         1 <0>         0.4252
     44 H9          2.7126    1.3096    4.0902 H         1 <0>         0.1328
     45 H10         3.2083   -0.4661    5.7128 H         1 <0>         0.1356
     46 H11         1.8133   -0.7375    7.7203 H         1 <0>         0.1376
     47 H12        -0.0835    0.7688    8.1272 H         1 <0>         0.1390
     48 H13        -1.1351    3.4932    5.8011 H         1 <0>         0.4659
     49 H14        -1.1599    2.0510    8.5560 H         1 <0>         0.1706
     50 H15        -2.2817    2.8622    5.2659 H         1 <0>         0.1413
     51 H16        -3.7270    3.5342    3.3935 H         1 <0>         0.1291
     52 H17        -5.7658    4.8432    3.8016 H         1 <0>         0.1327
     53 H18        -6.3919    5.5017    6.0823 H         1 <0>         0.1404
     54 H19        -4.6607    7.0437   10.2229 H         1 <0>         0.1417
     55 H20        -5.3222    7.7241   12.4926 H         1 <0>         0.1450
     56 H21        -4.6748    2.9464   11.4412 H         1 <0>         0.1389
     57 H22        -7.2367    4.3712   14.8046 H         1 <0>         0.0875
     58 H23        -5.8993    4.2929   16.0012 H         1 <0>         0.1356
@<TRIPOS>BOND
     1    1    2 1
     2    1   36 1
     3    1   37 1
     4    1   38 1
     5    2    3 1
     6    2   39 1
     7    2   40 1
     8    3    4 1
     9    3   41 1
    10    3   42 1
    11    4    5 am
    12    4   43 1
    13    5    6 2
    14    5    7 1
    15    7   12 ar
    16    7    8 ar
    17    8    9 ar
    18    8   44 1
    19    9   10 ar
    20    9   45 1
    21   10   11 ar
    22   10   46 1
    23   11   12 ar
    24   11   47 1
    25   12   13 1
    26   13   14 1
    27   13   48 1
    28   14   15 2
    29   14   49 1
    30   15   25 1
    31   15   16 1
    32   16   21 ar
    33   16   17 ar
    34   17   18 ar
    35   17   50 1
    36   18   19 ar
    37   18   51 1
    38   19   20 ar
    39   19   52 1
    40   20   21 ar
    41   20   53 1
    42   21   22 1
    43   22   23 2
    44   22   24 am
    45   24   25 am
    46   24   27 1
    47   25   26 2
    48   27   32 ar
    49   27   28 ar
    50   28   29 ar
    51   28   54 1
    52   29   30 ar
    53   29   55 1
    54   30   35 1
    55   30   31 ar
    56   31   32 ar
    57   31   33 1
    58   32   56 1
    59   33   34 1
    60   34   35 1
    61   34   57 1
    62   34   58 1
@<TRIPOS>MOLECULE
ZINC57986170
   56    60     0     0     0
SMALL
USER_CHARGES

@<TRIPOS>ATOM
      1 C1         -2.2128    1.1224    1.3375 C.3       1 <0>        -0.1483
      2 C2         -1.7642   -0.3156    1.0692 C.3       1 <0>        -0.0864
      3 H1         -2.6386   -0.9545    0.9456 H         1 <0>         0.0774
      4 C3         -0.9120   -0.3592   -0.2027 C.3       1 <0>        -0.1149
      5 C4         -0.6682   -1.8113   -0.6136 C.3       1 <0>        -0.0714
      6 C5         -0.1010   -2.5749    0.5804 C.2       1 <0>        -0.0797
      7 C6         -0.2385   -2.0894    1.8343 C.2       1 <0>        -0.1526
      8 S1          0.5540   -3.2798    2.8865 S.3       1 <0>         0.1257
      9 C7          1.0691   -4.4252    1.6482 C.ar      1 <0>         0.1449
     10 C8          0.6035   -3.8400    0.4438 C.ar      1 <0>        -0.2504
     11 C9          0.8729   -4.5465   -0.7641 C.ar      1 <0>         0.5064
     12 N1          1.5390   -5.6912   -0.6334 N.ar      1 <0>        -0.6059
     13 C10         1.9453   -6.1808    0.5285 C.ar      1 <0>         0.3375
     14 N2          1.7239   -5.5683    1.6940 N.ar      1 <0>        -0.4735
     15 S2          2.8172   -7.7120    0.5363 S.3       1 <0>         0.1006
     16 C11         2.8926   -8.1830   -1.2139 C.3       1 <0>        -0.1533
     17 C12         3.6233   -9.4940   -1.3502 C.2       1 <0>         0.5371
     18 O1          4.0510  -10.0552   -0.3639 O.2       1 <0>        -0.5152
     19 N3          3.8013  -10.0427   -2.5683 N.am      1 <0>        -0.6080
     20 C13         3.2938   -9.3708   -3.7728 C.3       1 <0>         0.0892
     21 C14         4.4568   -9.1792   -4.7540 C.3       1 <0>         0.1068
     22 N4          5.1625  -10.4599   -4.9016 N.pl3     1 <0>        -0.6024
     23 C15         5.6701  -11.1318   -3.6971 C.3       1 <0>         0.1100
     24 C16         4.5119  -11.3205   -2.7164 C.3       1 <0>         0.0986
     25 C17         5.3462  -11.0257   -6.1578 C.ar      1 <0>         0.3581
     26 C18         5.0640  -10.2869   -7.3050 C.ar      1 <0>        -0.0100
     27 N5          5.2398  -10.8280   -8.4952 N.ar      1 <0>        -0.4017
     28 C19         5.6831  -12.0697   -8.6002 C.ar      1 <0>        -0.0209
     29 C20         5.9640  -12.8055   -7.4651 C.ar      1 <0>         0.1076
     30 N6          5.7958  -12.2689   -6.2681 N.ar      1 <0>        -0.5020
     31 N7          0.4663   -4.0715   -1.9977 N.pl3     1 <0>        -0.8270
     32 C21        -0.9198   -0.8202    2.2478 C.3       1 <0>        -0.0359
     33 H2         -1.3369    1.7593    1.4607 H         1 <0>         0.0581
     34 H3         -2.8071    1.4804    0.4968 H         1 <0>         0.0597
     35 H4         -2.8141    1.1518    2.2462 H         1 <0>         0.0593
     36 H5         -1.4330    0.1620   -1.0058 H         1 <0>         0.0742
     37 H6          0.0439    0.1297   -0.0151 H         1 <0>         0.0697
     38 H7         -1.6091   -2.2657   -0.9239 H         1 <0>         0.0808
     39 H8          0.0437   -1.8425   -1.4384 H         1 <0>         0.0786
     40 H9          1.8809   -8.2885   -1.6056 H         1 <0>         0.1244
     41 H10         3.4210   -7.4124   -1.7751 H         1 <0>         0.1243
     42 H11         2.5215   -9.9848   -4.2362 H         1 <0>         0.0811
     43 H12         2.8793   -8.3995   -3.5027 H         1 <0>         0.1021
     44 H13         4.0701   -8.8610   -5.7221 H         1 <0>         0.1002
     45 H14         5.1427   -8.4262   -4.3658 H         1 <0>         0.0798
     46 H15         6.0846  -12.1030   -3.9672 H         1 <0>         0.1107
     47 H16         6.4423  -10.5178   -3.2337 H         1 <0>         0.0710
     48 H17         4.9018  -11.6366   -1.7488 H         1 <0>         0.1087
     49 H18         3.8284  -12.0766   -3.1029 H         1 <0>         0.0762
     50 H19         4.7017   -9.2731   -7.2198 H         1 <0>         0.1635
     51 H20         5.8256  -12.5099   -9.5761 H         1 <0>         0.1672
     52 H21         6.3258  -13.8191   -7.5554 H         1 <0>         0.1704
     53 H22         0.8614   -4.4277   -2.8089 H         1 <0>         0.4095
     54 H23        -0.2141   -3.3823   -2.0518 H         1 <0>         0.4166
     55 H24        -0.1705   -0.0726    2.5080 H         1 <0>         0.0878
     56 H25        -1.5650   -1.0102    3.1056 H         1 <0>         0.0861
@<TRIPOS>BOND
     1    1    2 1
     2    1   33 1
     3    1   34 1
     4    1   35 1
     5    2    3 1
     6    2   32 1
     7    2    4 1
     8    4    5 1
     9    4   36 1
    10    4   37 1
    11    5    6 1
    12    5   38 1
    13    5   39 1
    14    6   10 1
    15    6    7 2
    16    7    8 1
    17    7   32 1
    18    8    9 1
    19    9   14 ar
    20    9   10 ar
    21   10   11 ar
    22   11   12 ar
    23   11   31 1
    24   12   13 ar
    25   13   14 ar
    26   13   15 1
    27   15   16 1
    28   16   17 1
    29   16   40 1
    30   16   41 1
    31   17   18 2
    32   17   19 am
    33   19   24 1
    34   19   20 1
    35   20   21 1
    36   20   42 1
    37   20   43 1
    38   21   22 1
    39   21   44 1
    40   21   45 1
    41   22   23 1
    42   22   25 1
    43   23   24 1
    44   23   46 1
    45   23   47 1
    46   24   48 1
    47   24   49 1
    48   25   30 ar
    49   25   26 ar
    50   26   27 ar
    51   26   50 1
    52   27   28 ar
    53   28   29 ar
    54   28   51 1
    55   29   30 ar
    56   29   52 1
    57   31   53 1
    58   31   54 1
    59   32   55 1
    60   32   56 1
@<TRIPOS>MOLECULE
ZINC04465496
   52    56     0     0     0
SMALL
USER_CHARGES
4-[1-[4-(4-oxo-2-oxa-5-azabicyclo[4.4.0]deca-7,9,11-trien-8-yl)-2-(3-pyridylimino)thiazol-3-yl]aminovinyl]benzonitrile
@<TRIPOS>ATOM
      1 C1          2.0199    5.4379   -0.6597 C.2       1 <0>        -0.2282
      2 C2          1.3970    6.2082   -1.5535 C.2       1 <0>         0.1651
      3 C3          2.1112    7.3451   -2.1759 C.ar      1 <0>        -0.0067
      4 C4          1.4609    8.1475   -3.1154 C.ar      1 <0>        -0.1157
      5 C5          2.1225    9.2084   -3.6905 C.ar      1 <0>        -0.0612
      6 C6          3.4497    9.4755   -3.3424 C.ar      1 <0>        -0.0244
      7 C7          4.1018    8.6682   -2.4059 C.ar      1 <0>        -0.0610
      8 C8          3.4368    7.6112   -1.8276 C.ar      1 <0>        -0.1005
      9 C9          4.1410   10.5753   -3.9450 C.1       1 <0>         0.2478
     10 N1          4.6894   11.4478   -4.4231 N.1       1 <0>        -0.4079
     11 N2          0.0719    5.9418   -1.9014 N.pl3     1 <0>        -0.5430
     12 N3         -0.5670    4.7989   -1.4031 N.pl3     1 <0>        -0.3083
     13 C10        -1.7764    4.8952   -0.7705 C.2       1 <0>         0.1511
     14 C11        -2.3701    3.7822   -0.2933 C.2       1 <0>        -0.1933
     15 S1         -1.2005    2.5111   -0.7450 S.3       1 <0>        -0.0231
     16 C12         0.0067    3.5573   -1.5435 C.2       1 <0>         0.4123
     17 N4          1.1504    3.2267   -2.1130 N.2       1 <0>        -0.4842
     18 C13         1.4967    1.9097   -2.2374 C.ar      1 <0>         0.0647
     19 C14         2.2864    1.2852   -1.2626 C.ar      1 <0>        -0.0832
     20 C15         2.6087   -0.0485   -1.4363 C.ar      1 <0>        -0.1534
     21 C16         2.1460   -0.7175   -2.5558 C.ar      1 <0>         0.0875
     22 N5          1.4040   -0.1047   -3.4579 N.ar      1 <0>        -0.4680
     23 C17         1.0696    1.1635   -3.3388 C.ar      1 <0>         0.0942
     24 C18        -2.4262    6.2137   -0.6053 C.ar      1 <0>        -0.0425
     25 C19        -1.6552    7.3426   -0.3237 C.ar      1 <0>        -0.0862
     26 C20        -2.2598    8.5746   -0.1752 C.ar      1 <0>        -0.1031
     27 C21        -3.6350    8.6918   -0.2944 C.ar      1 <0>         0.0949
     28 C22        -4.4120    7.5660   -0.5695 C.ar      1 <0>         0.0979
     29 C23        -3.8120    6.3300   -0.7251 C.ar      1 <0>        -0.0927
     30 N6         -5.8029    7.7044   -0.6844 N.am      1 <0>        -0.6605
     31 C24        -6.3272    8.9390   -0.8436 C.2       1 <0>         0.4909
     32 O1         -7.5291    9.0857   -0.9151 O.2       1 <0>        -0.5017
     33 C25        -5.4123   10.1340   -0.9317 C.3       1 <0>         0.0494
     34 O2         -4.2407    9.9009   -0.1457 O.3       1 <0>        -0.2976
     35 H1          3.0724    5.5805   -0.4640 H         1 <0>         0.1195
     36 H2          1.4715    4.6717   -0.1318 H         1 <0>         0.0969
     37 H3          0.4370    7.9380   -3.3878 H         1 <0>         0.1284
     38 H4          1.6179    9.8316   -4.4139 H         1 <0>         0.1371
     39 H5          5.1273    8.8737   -2.1366 H         1 <0>         0.1393
     40 H6          3.9406    6.9871   -1.1043 H         1 <0>         0.1425
     41 H7         -0.4067    6.5480   -2.4882 H         1 <0>         0.4227
     42 H8         -3.3110    3.6849    0.2278 H         1 <0>         0.2082
     43 H9          2.6342    1.8312   -0.3982 H         1 <0>         0.1356
     44 H10         3.2152   -0.5628   -0.7054 H         1 <0>         0.1396
     45 H11         2.3964   -1.7591   -2.6930 H         1 <0>         0.1584
     46 H12         0.4642    1.6316   -4.1008 H         1 <0>         0.1531
     47 H13        -0.5834    7.2528   -0.2258 H         1 <0>         0.1446
     48 H14        -1.6606    9.4473    0.0386 H         1 <0>         0.1477
     49 H15        -4.4130    5.4583   -0.9381 H         1 <0>         0.1434
     50 H16        -6.3797    6.9252   -0.6503 H         1 <0>         0.4190
     51 H17        -5.9309   11.0164   -0.5570 H         1 <0>         0.1504
     52 H18        -5.1259   10.2953   -1.9709 H         1 <0>         0.1043
@<TRIPOS>BOND
     1    1    2 2
     2    1   35 1
     3    1   36 1
     4    2    3 1
     5    2   11 1
     6    3    8 ar
     7    3    4 ar
     8    4    5 ar
     9    4   37 1
    10    5    6 ar
    11    5   38 1
    12    6    7 ar
    13    6    9 1
    14    7    8 ar
    15    7   39 1
    16    8   40 1
    17    9   10 3
    18   11   12 1
    19   11   41 1
    20   12   16 1
    21   12   13 1
    22   13   14 2
    23   13   24 1
    24   14   15 1
    25   14   42 1
    26   15   16 1
    27   16   17 2
    28   17   18 1
    29   18   23 ar
    30   18   19 ar
    31   19   20 ar
    32   19   43 1
    33   20   21 ar
    34   20   44 1
    35   21   22 ar
    36   21   45 1
    37   22   23 ar
    38   23   46 1
    39   24   29 ar
    40   24   25 ar
    41   25   26 ar
    42   25   47 1
    43   26   27 ar
    44   26   48 1
    45   27   34 1
    46   27   28 ar
    47   28   29 ar
    48   28   30 1
    49   29   49 1
    50   30   31 am
    51   30   50 1
    52   31   32 2
    53   31   33 1
    54   33   34 1
    55   33   51 1
    56   33   52 1
@<TRIPOS>MOLECULE
ZINC11855164
   51    55     0     0     0
SMALL
USER_CHARGES
N-[2-(5-ethyl-4-methyl-6-oxo-1H-pyrimidin-2-yl)-5-(2-thienyl)pyrazol-3-yl]benzofuran-2-carboxamide
@<TRIPOS>ATOM
      1 C1         -6.0832    8.7527   -1.3287 C.3       1 <0>        -0.1475
      2 C2         -5.9555    8.2270    0.1025 C.3       1 <0>        -0.0566
      3 C3         -5.9727    6.7202    0.0876 C.2       1 <0>        -0.2623
      4 C4         -4.8064    6.0131    0.0737 C.2       1 <0>         0.2056
      5 N1         -4.8329    4.6815    0.0653 N.2       1 <0>        -0.5734
      6 C5         -5.9692    4.0186    0.0599 C.2       1 <0>         0.6490
      7 N2         -7.1635    4.6682    0.0733 N.am      1 <0>        -0.6222
      8 H1         -7.9920    4.1636    0.0731 H         1 <0>         0.4288
      9 C6         -7.1926    6.0181    0.0873 C.2       1 <0>         0.5414
     10 O1         -8.2552    6.6173    0.0999 O.2       1 <0>        -0.5155
     11 N3         -5.9486    2.6377    0.0460 N.pl3     1 <0>        -0.3482
     12 C7         -4.8315    1.8511    0.0317 C.2       1 <0>         0.3592
     13 C8         -5.2393    0.5566    0.0268 C.2       1 <0>        -0.2484
     14 C9         -6.6501    0.5484    0.0331 C.2       1 <0>         0.2250
     15 N4         -7.0691    1.7974    0.0415 N.2       1 <0>        -0.2733
     16 C10        -7.5098   -0.6542    0.0311 C.2       1 <0>        -0.1169
     17 C11        -8.8765   -0.7378    0.0369 C.2       1 <0>        -0.1043
     18 C12        -9.4638   -1.9841    0.0330 C.2       1 <0>        -0.1662
     19 C13        -8.6733   -3.0879    0.0236 C.2       1 <0>        -0.1576
     20 S1         -7.0364   -2.3756    0.0126 S.3       1 <0>         0.1114
     21 N5         -3.5130    2.2970    0.0288 N.am      1 <0>        -0.6282
     22 C14        -2.5008    1.4072    0.0198 C.2       1 <0>         0.6112
     23 O2         -2.7396    0.2141    0.0143 O.2       1 <0>        -0.4774
     24 C15        -1.1090    1.8778    0.0168 C.2       1 <0>        -0.0373
     25 C16        -0.0126    1.0758    0.0080 C.2       1 <0>        -0.0851
     26 C17         1.1439    1.9709    0.0017 C.ar      1 <0>        -0.1505
     27 C18         2.5270    1.7748   -0.0129 C.ar      1 <0>        -0.0541
     28 C19         3.3640    2.8546   -0.0155 C.ar      1 <0>        -0.1372
     29 C20         2.8491    4.1439   -0.0042 C.ar      1 <0>        -0.0747
     30 C21         1.4880    4.3587    0.0104 C.ar      1 <0>        -0.1128
     31 C22         0.6164    3.2756    0.0138 C.ar      1 <0>         0.0783
     32 O3         -0.7267    3.1719    0.0261 O.3       1 <0>        -0.1835
     33 C23        -3.4860    6.7394    0.0737 C.3       1 <0>        -0.1116
     34 H2         -6.0707    9.8425   -1.3180 H         1 <0>         0.0625
     35 H3         -5.2488    8.3856   -1.9264 H         1 <0>         0.0532
     36 H4         -7.0210    8.4043   -1.7614 H         1 <0>         0.0564
     37 H5         -6.7898    8.5940    0.7002 H         1 <0>         0.0801
     38 H6         -5.0176    8.5754    0.5351 H         1 <0>         0.0797
     39 H7         -4.5980   -0.3124    0.0198 H         1 <0>         0.1966
     40 H8         -9.4825    0.1561    0.0447 H         1 <0>         0.1410
     41 H9        -10.5394   -2.0818    0.0377 H         1 <0>         0.1415
     42 H10        -8.9608   -4.1289    0.0189 H         1 <0>         0.1934
     43 H11        -3.3226    3.2481    0.0332 H         1 <0>         0.4375
     44 H12         0.0021   -0.0041    0.0020 H         1 <0>         0.1760
     45 H13         2.9328    0.7740   -0.0226 H         1 <0>         0.1342
     46 H14         4.4335    2.7042   -0.0269 H         1 <0>         0.1351
     47 H15         3.5228    4.9879   -0.0071 H         1 <0>         0.1405
     48 H16         1.0992    5.3662    0.0191 H         1 <0>         0.1379
     49 H17        -3.1618    6.9040    1.1013 H         1 <0>         0.0924
     50 H18        -2.7416    6.1401   -0.4505 H         1 <0>         0.0850
     51 H19        -3.5995    7.6996   -0.4296 H         1 <0>         0.0918
@<TRIPOS>BOND
     1    1    2 1
     2    1   34 1
     3    1   35 1
     4    1   36 1
     5    2    3 1
     6    2   37 1
     7    2   38 1
     8    3    9 1
     9    3    4 2
    10    4    5 1
    11    4   33 1
    12    5    6 2
    13    6    7 1
    14    6   11 1
    15    7    8 1
    16    7    9 am
    17    9   10 2
    18   11   15 1
    19   11   12 1
    20   12   13 2
    21   12   21 1
    22   13   14 1
    23   13   39 1
    24   14   15 2
    25   14   16 1
    26   16   20 1
    27   16   17 2
    28   17   18 1
    29   17   40 1
    30   18   19 2
    31   18   41 1
    32   19   20 1
    33   19   42 1
    34   21   22 am
    35   21   43 1
    36   22   23 2
    37   22   24 1
    38   24   32 1
    39   24   25 2
    40   25   26 1
    41   25   44 1
    42   26   31 ar
    43   26   27 ar
    44   27   28 ar
    45   27   45 1
    46   28   29 ar
    47   28   46 1
    48   29   30 ar
    49   29   47 1
    50   30   31 ar
    51   30   48 1
    52   31   32 1
    53   33   49 1
    54   33   50 1
    55   33   51 1
@<TRIPOS>MOLECULE
ZINC20159009
   46    49     0     0     0
SMALL
USER_CHARGES
N-[4-[N-[(5-bromofuran-2-carbonyl)amino]-C-methyl-carbonimidoyl]phenyl]-1,3-benzodioxole-5-carboxamide
@<TRIPOS>ATOM
      1 C1         11.6931   -0.9300    4.6145 C.3       1 <0>        -0.1680
      2 C2         10.8148   -2.1545    4.6313 C.2       1 <0>         0.1486
      3 N1         11.2836   -3.2837    5.0678 N.2       1 <0>        -0.2323
      4 N2         12.6061   -3.3640    5.5232 N.am      1 <0>        -0.5833
      5 C3         13.0928   -4.5362    5.9763 C.2       1 <0>         0.6250
      6 O1         12.3832   -5.5255    5.9899 O.2       1 <0>        -0.4796
      7 C4         14.4757   -4.6202    6.4525 C.2       1 <0>        -0.0548
      8 C5         15.0920   -5.7401    6.9352 C.2       1 <0>        -0.1069
      9 C6         16.4014   -5.3668    7.2725 C.2       1 <0>        -0.1619
     10 C7         16.5271   -4.0506    6.9847 C.2       1 <0>        -0.0010
     11 O2         15.3658   -3.6062    6.4858 O.3       1 <0>        -0.1512
     12 Br1        18.0867   -3.0117    7.2377 Br        1 <0>         0.0691
     13 C8          9.4235   -2.0701    4.1522 C.ar      1 <0>        -0.0680
     14 C9          8.6073   -3.2046    4.1670 C.ar      1 <0>        -0.0549
     15 C10         7.3077   -3.1219    3.7180 C.ar      1 <0>        -0.1497
     16 C11         6.8074   -1.9115    3.2504 C.ar      1 <0>         0.1718
     17 C12         7.6180   -0.7817    3.2292 C.ar      1 <0>        -0.1271
     18 C13         8.9170   -0.8553    3.6815 C.ar      1 <0>        -0.0698
     19 N3          5.4892   -1.8317    2.7955 N.am      1 <0>        -0.6813
     20 C14         4.7821   -0.6983    2.9742 C.2       1 <0>         0.5684
     21 O3          5.2567    0.2197    3.6149 O.2       1 <0>        -0.5121
     22 C15         3.4319   -0.5715    2.3922 C.ar      1 <0>        -0.1295
     23 C16         2.8851   -1.6251    1.6553 C.ar      1 <0>        -0.0707
     24 C17         1.6249   -1.5045    1.1119 C.ar      1 <0>        -0.1071
     25 C18         0.8936   -0.3383    1.2946 C.ar      1 <0>         0.0645
     26 C19         1.4340    0.7176    2.0296 C.ar      1 <0>         0.0264
     27 C20         2.6972    0.6027    2.5764 C.ar      1 <0>        -0.0397
     28 O4          0.5254    1.7363    2.0608 O.3       1 <0>        -0.3051
     29 C21        -0.7315    1.1407    1.6887 C.3       1 <0>         0.2073
     30 O5         -0.3505    0.0212    0.8675 O.3       1 <0>        -0.2993
     31 H1         11.1253   -0.0770    4.2144 H         1 <0>         0.0941
     32 H2         12.5708   -1.1170    3.9784 H         1 <0>         0.0833
     33 H3         12.0242   -0.7022    5.6384 H         1 <0>         0.0833
     34 H4         13.2472   -2.4703    5.5109 H         1 <0>         0.4112
     35 H5         14.6555   -6.7227    7.0370 H         1 <0>         0.1742
     36 H6         17.1658   -6.0092    7.6841 H         1 <0>         0.1725
     37 H7          8.9952   -4.1451    4.5296 H         1 <0>         0.1401
     38 H8          6.6763   -3.9980    3.7294 H         1 <0>         0.1322
     39 H9          7.2272    0.1555    2.8615 H         1 <0>         0.1397
     40 H10         9.5447    0.0235    3.6685 H         1 <0>         0.1352
     41 H11         5.0282   -2.6939    2.2914 H         1 <0>         0.4353
     42 H12         3.4504   -2.5340    1.5116 H         1 <0>         0.1432
     43 H13         1.2039   -2.3202    0.5429 H         1 <0>         0.1463
     44 H14         3.1167    1.4195    3.1452 H         1 <0>         0.1511
     45 H15        -1.2714    0.8279    2.5946 H         1 <0>         0.0912
     46 H16        -1.3362    1.8753    1.1367 H         1 <0>         0.1391
@<TRIPOS>BOND
     1    1    2 1
     2    1   31 1
     3    1   32 1
     4    1   33 1
     5    2    3 2
     6    2   13 1
     7    3    4 1
     8    4    5 am
     9    4   34 1
    10    5    6 2
    11    5    7 1
    12    7   11 1
    13    7    8 2
    14    8    9 1
    15    8   35 1
    16    9   10 2
    17    9   36 1
    18   10   11 1
    19   10   12 1
    20   13   18 ar
    21   13   14 ar
    22   14   15 ar
    23   14   37 1
    24   15   16 ar
    25   15   38 1
    26   16   17 ar
    27   16   19 1
    28   17   18 ar
    29   17   39 1
    30   18   40 1
    31   19   20 am
    32   19   41 1
    33   20   21 2
    34   20   22 1
    35   22   27 ar
    36   22   23 ar
    37   23   24 ar
    38   23   42 1
    39   24   25 ar
    40   24   43 1
    41   25   30 1
    42   25   26 ar
    43   26   27 ar
    44   26   28 1
    45   27   44 1
    46   28   29 1
    47   29   30 1
    48   29   45 1
    49   29   46 1
@<TRIPOS>MOLECULE
ZINC26127655
   47    50     0     0     0
SMALL
USER_CHARGES
N-[4-[[4-amino-5-(2-methyl-3-furyl)-1,2,4-triazol-3-yl]sulfanylmethyl]thiazol-2-yl]-N-(2-fluorophenyl)acetamide
@<TRIPOS>ATOM
      1 C1        -11.6241    1.9993    0.0289 C.3       1 <0>        -0.0963
      2 C2        -11.4829    1.9551   -1.4708 C.2       1 <0>         0.0650
      3 C3        -10.3806    1.5449   -2.1544 C.2       1 <0>        -0.1298
      4 C4        -10.7227    1.6758   -3.5764 C.2       1 <0>        -0.2087
      5 C5        -11.9786    2.1504   -3.6134 C.2       1 <0>        -0.0160
      6 O1        -12.4214    2.3162   -2.3579 O.3       1 <0>        -0.1720
      7 C6         -9.1047    1.0612   -1.5837 C.2       1 <0>         0.2418
      8 N1         -8.8133    0.9483   -0.3089 N.2       1 <0>        -0.2665
      9 N2         -7.6207    0.4903   -0.1699 N.2       1 <0>        -0.2752
     10 C7         -7.0736    0.2915   -1.3467 C.2       1 <0>         0.1325
     11 N3         -7.9999    0.6442   -2.2885 N.pl3     1 <0>        -0.2096
     12 N4         -7.8578    0.5927   -3.6461 N.3       1 <0>        -0.7635
     13 S1         -5.4510   -0.3224   -1.6549 S.3       1 <0>         0.0150
     14 C8         -4.8712   -0.5454    0.0452 C.3       1 <0>        -0.0270
     15 C9         -3.4619   -1.0791    0.0293 C.2       1 <0>         0.0904
     16 C10        -3.2259   -2.4140    0.0199 C.2       1 <0>        -0.2062
     17 S2         -1.4393   -2.4349   -0.0049 S.3       1 <0>         0.0808
     18 C11        -1.1932   -0.7160    0.0096 C.2       1 <0>         0.3110
     19 N5         -2.4300   -0.2586    0.0239 N.2       1 <0>        -0.4984
     20 N6          0.0021   -0.0041    0.0020 N.am      1 <0>        -0.4680
     21 C12         1.2253   -0.6883   -0.0133 C.ar      1 <0>         0.0639
     22 C13         1.8439   -1.0344    1.1801 C.ar      1 <0>        -0.0711
     23 C14         3.0491   -1.7091    1.1621 C.ar      1 <0>        -0.1176
     24 C15         3.6407   -2.0405   -0.0431 C.ar      1 <0>        -0.0670
     25 C16         3.0284   -1.6985   -1.2347 C.ar      1 <0>        -0.1450
     26 C17         1.8191   -1.0271   -1.2241 C.ar      1 <0>         0.1190
     27 F1          1.2183   -0.6969   -2.3882 F         1 <0>        -0.1251
     28 C18        -0.0162    1.3436    0.0094 C.2       1 <0>         0.5129
     29 O2         -1.0747    1.9356    0.0177 O.2       1 <0>        -0.4592
     30 C19         1.2785    2.1147    0.0012 C.3       1 <0>        -0.1687
     31 H1        -10.6935    1.6438    0.4954 H         1 <0>         0.1200
     32 H2        -12.4591    1.3533    0.3377 H         1 <0>         0.0852
     33 H3        -11.8227    3.0330    0.3482 H         1 <0>         0.0852
     34 H4        -10.0926    1.4381   -4.4208 H         1 <0>         0.1489
     35 H5        -12.5418    2.3639   -4.5099 H         1 <0>         0.2117
     36 H6         -6.9152    0.2366   -4.0873 H         1 <0>         0.4459
     37 H7         -8.6860    0.9073   -4.2981 H         1 <0>         0.4417
     38 H8         -4.8913    0.4215    0.5692 H         1 <0>         0.1189
     39 H9         -5.5274   -1.2583    0.5659 H         1 <0>         0.1186
     40 H10        -3.9248   -3.2374    0.0225 H         1 <0>         0.2065
     41 H11         1.3834   -0.7759    2.1222 H         1 <0>         0.1425
     42 H12         3.5301   -1.9786    2.0908 H         1 <0>         0.1439
     43 H13         4.5830   -2.5681   -0.0537 H         1 <0>         0.1446
     44 H14         3.4927   -1.9591   -2.1743 H         1 <0>         0.1485
     45 H15         1.0629    3.1933    0.0090 H         1 <0>         0.1060
     46 H16         1.8503    1.8616   -0.9038 H         1 <0>         0.0934
     47 H17         1.8674    1.8520    0.8924 H         1 <0>         0.0970
@<TRIPOS>BOND
     1    1    2 1
     2    1   31 1
     3    1   32 1
     4    1   33 1
     5    2    6 1
     6    2    3 2
     7    3    4 1
     8    3    7 1
     9    4    5 2
    10    4   34 1
    11    5    6 1
    12    5   35 1
    13    7   11 1
    14    7    8 2
    15    8    9 1
    16    9   10 2
    17   10   11 1
    18   10   13 1
    19   11   12 1
    20   12   36 1
    21   12   37 1
    22   13   14 1
    23   14   15 1
    24   14   38 1
    25   14   39 1
    26   15   19 1
    27   15   16 2
    28   16   17 1
    29   16   40 1
    30   17   18 1
    31   18   19 2
    32   18   20 1
    33   20   21 1
    34   20   28 am
    35   21   26 ar
    36   21   22 ar
    37   22   23 ar
    38   22   41 1
    39   23   24 ar
    40   23   42 1
    41   24   25 ar
    42   24   43 1
    43   25   26 ar
    44   25   44 1
    45   26   27 1
    46   28   29 2
    47   28   30 1
    48   30   45 1
    49   30   46 1
    50   30   47 1
@<TRIPOS>MOLECULE
ZINC38714490
   53    57     0     0     0
SMALL
USER_CHARGES

@<TRIPOS>ATOM
      1 C1          0.6899    2.6688    1.1769 C.ar      1 <0>        -0.0621
      2 C2          1.9799    3.1653    1.1952 C.ar      1 <0>        -0.1391
      3 C3          3.0500    2.3174    0.9790 C.ar      1 <0>        -0.0210
      4 C4          2.8302    0.9728    0.7449 C.ar      1 <0>        -0.6771
      5 C5          1.5403    0.4761    0.7276 C.ar      1 <0>        -0.0196
      6 C6          0.4701    1.3243    0.9424 C.ar      1 <0>        -0.1387
      7 S1          4.1942   -0.1077    0.4682 S.o2      1 <0>         2.6937
      8 O1          3.6922   -1.2153   -0.2670 O.2       1 <0>        -0.9518
      9 O2          5.2627    0.7002   -0.0060 O.2       1 <0>        -0.9502
     10 N1          4.6626   -0.6930    1.9448 N.pl3     1 <0>        -0.9973
     11 C7          5.6675    0.0067    2.7621 C.3       1 <0>         0.1183
     12 C8          4.9839    0.4789    4.0443 C.3       1 <0>        -0.0994
     13 C9          4.1733   -0.6313    4.6601 C.ar      1 <0>        -0.0790
     14 C10         3.8482   -0.5194    6.0073 C.ar      1 <0>        -0.0974
     15 C11         3.1007   -1.4927    6.6335 C.ar      1 <0>        -0.1142
     16 C12         2.6653   -2.5975    5.9130 C.ar      1 <0>         0.1637
     17 C13         2.9925   -2.7110    4.5711 C.ar      1 <0>        -0.1407
     18 C14         3.7501   -1.7309    3.9467 C.ar      1 <0>        -0.0747
     19 C15         4.0884   -1.9261    2.4937 C.3       1 <0>         0.1664
     20 N2          1.9018   -3.5896    6.5381 N.am      1 <0>        -0.6794
     21 C16         1.0504   -3.2602    7.5296 C.2       1 <0>         0.7037
     22 O3          0.8754   -2.0918    7.8175 O.2       1 <0>        -0.5493
     23 N3          0.3930   -4.2257    8.2019 N.am      1 <0>        -0.6772
     24 C17        -0.5721   -3.8810    9.1577 C.ar      1 <0>         0.1748
     25 C18        -0.7472   -4.6732   10.2843 C.ar      1 <0>        -0.1343
     26 C19        -1.6988   -4.3349   11.2274 C.ar      1 <0>        -0.0780
     27 C20        -2.4804   -3.2045   11.0519 C.ar      1 <0>         0.0164
     28 C21        -2.3068   -2.4077    9.9229 C.ar      1 <0>         0.0554
     29 C22        -1.3491   -2.7447    8.9808 C.ar      1 <0>        -0.1038
     30 O4         -3.1877   -1.3666    9.9838 O.3       1 <0>        -0.3059
     31 C23        -4.1790   -1.7576   10.9521 C.3       1 <0>         0.2130
     32 O5         -3.4709   -2.6619   11.8204 O.3       1 <0>        -0.3076
     33 H1         -0.1459    3.3304    1.3502 H         1 <0>         0.1316
     34 H2          2.1516    4.2158    1.3780 H         1 <0>         0.1337
     35 H3          4.0578    2.7055    0.9925 H         1 <0>         0.1394
     36 H4          1.3685   -0.5743    0.5444 H         1 <0>         0.1380
     37 H5         -0.5377    0.9363    0.9284 H         1 <0>         0.1330
     38 H6          6.4822   -0.6744    3.0079 H         1 <0>         0.0862
     39 H7          6.0561    0.8649    2.2139 H         1 <0>         0.1010
     40 H8          5.7425    0.8058    4.7555 H         1 <0>         0.0902
     41 H9          4.3264    1.3167    3.8124 H         1 <0>         0.0803
     42 H10         4.1849    0.3396    6.5687 H         1 <0>         0.1267
     43 H11         2.8544   -1.3971    7.6807 H         1 <0>         0.1374
     44 H12         2.6552   -3.5683    4.0075 H         1 <0>         0.1292
     45 H13         3.1835   -2.1816    1.9424 H         1 <0>         0.0982
     46 H14         4.8112   -2.7364    2.3987 H         1 <0>         0.0911
     47 H15         1.9852   -4.5145    6.2578 H         1 <0>         0.4100
     48 H16         0.5879   -5.1591    8.0243 H         1 <0>         0.4130
     49 H17        -0.1393   -5.5549   10.4236 H         1 <0>         0.1430
     50 H18        -1.8337   -4.9530   12.1027 H         1 <0>         0.1424
     51 H19        -1.2098   -2.1256    8.1069 H         1 <0>         0.1487
     52 H20        -4.5332   -0.8903   11.5092 H         1 <0>         0.1333
     53 H21        -5.0105   -2.2668   10.4648 H         1 <0>         0.0860
@<TRIPOS>BOND
     1    1    6 ar
     2    1    2 ar
     3    1   33 1
     4    2    3 ar
     5    2   34 1
     6    3    4 ar
     7    3   35 1
     8    4    5 ar
     9    4    7 1
    10    5    6 ar
    11    5   36 1
    12    6   37 1
    13    7    8 2
    14    7    9 2
    15    7   10 1
    16   10   19 1
    17   10   11 1
    18   11   12 1
    19   11   38 1
    20   11   39 1
    21   12   13 1
    22   12   40 1
    23   12   41 1
    24   13   18 ar
    25   13   14 ar
    26   14   15 ar
    27   14   42 1
    28   15   16 ar
    29   15   43 1
    30   16   17 ar
    31   16   20 1
    32   17   18 ar
    33   17   44 1
    34   18   19 1
    35   19   45 1
    36   19   46 1
    37   20   21 am
    38   20   47 1
    39   21   22 2
    40   21   23 am
    41   23   24 1
    42   23   48 1
    43   24   29 ar
    44   24   25 ar
    45   25   26 ar
    46   25   49 1
    47   26   27 ar
    48   26   50 1
    49   27   32 1
    50   27   28 ar
    51   28   29 ar
    52   28   30 1
    53   29   51 1
    54   30   31 1
    55   31   32 1
    56   31   52 1
    57   31   53 1
@<TRIPOS>MOLECULE
ZINC08834842
   54    58     0     0     0
SMALL
USER_CHARGES
4-[[3-(benzo[1,3]dioxol-5-ylmethyl)-4-oxo-2-thioxo-thiazolidin-5-ylidene]methyl]-3-(2-hydroxyethylamino)-8-methyl-2,6-diazabicyclo[4.4.0]deca-1,3,7,9-tetraen-5-one
@<TRIPOS>ATOM
      1 C1          4.5740   11.1956    5.3896 C.3       1 <0>        -0.1085
      2 C2          3.8715   11.5955    4.1177 C.2       1 <0>        -0.1383
      3 C3          4.2866   12.7371    3.4184 C.2       1 <0>        -0.0075
      4 C4          3.6451   13.0917    2.2689 C.2       1 <0>        -0.1461
      5 C5          2.5761   12.3068    1.8006 C.2       1 <0>         0.4445
      6 N1          1.9555   12.6611    0.6750 N.2       1 <0>        -0.5802
      7 C6          0.9455   11.9560    0.1863 C.2       1 <0>         0.5179
      8 C7          0.5022   10.8026    0.8754 C.2       1 <0>        -0.4268
      9 C8          1.1689   10.4354    2.0687 C.2       1 <0>         0.5506
     10 O1          0.8235    9.4467    2.6925 O.2       1 <0>        -0.5141
     11 N2          2.1938   11.1991    2.5049 N.am      1 <0>        -0.4353
     12 C9          2.8417   10.8529    3.6533 C.2       1 <0>         0.1080
     13 C10        -0.5763   10.0326    0.3811 C.2       1 <0>         0.1990
     14 C11        -0.5257    9.5193   -0.8825 C.2       1 <0>        -0.2997
     15 C12        -1.5275    8.8253   -1.6192 C.2       1 <0>         0.5471
     16 O2         -2.6248    8.6099   -1.1350 O.2       1 <0>        -0.4657
     17 N3         -1.2337    8.4220   -2.8430 N.am      1 <0>        -0.5184
     18 C13        -0.0148    8.6566   -3.3781 C.2       1 <0>         0.2815
     19 S1          0.5804    8.2241   -4.9239 S.2       1 <0>        -0.3474
     20 S2          0.8163    9.5352   -2.0633 S.3       1 <0>         0.0650
     21 C14        -2.2414    7.7052   -3.6285 C.3       1 <0>         0.1319
     22 C15        -3.0595    8.6941   -4.4183 C.ar      1 <0>        -0.1133
     23 C16        -4.2072    9.2346   -3.8688 C.ar      1 <0>        -0.0798
     24 C17        -4.9607   10.1426   -4.5891 C.ar      1 <0>        -0.1054
     25 C18        -4.5674   10.5124   -5.8650 C.ar      1 <0>         0.0463
     26 C19        -3.4115    9.9676   -6.4188 C.ar      1 <0>         0.0270
     27 C20        -2.6609    9.0586   -5.6908 C.ar      1 <0>        -0.0749
     28 O3         -3.2385   10.4870   -7.6714 O.3       1 <0>        -0.3043
     29 C21        -4.0770   11.6567   -7.7188 C.3       1 <0>         0.2120
     30 O4         -5.1216   11.3712   -6.7698 O.3       1 <0>        -0.3067
     31 N4          0.3287   12.3458   -0.9824 N.pl3     1 <0>        -0.6759
     32 C22         0.7920   13.5410   -1.6918 C.3       1 <0>         0.1221
     33 C23        -0.0558   13.7488   -2.9484 C.3       1 <0>         0.0576
     34 O5         -1.4048   14.0320   -2.5714 O.3       1 <0>        -0.5711
     35 H1          5.4013   10.5266    5.1528 H         1 <0>         0.0813
     36 H2          4.9578   12.0857    5.8881 H         1 <0>         0.0798
     37 H3          3.8710   10.6852    6.0479 H         1 <0>         0.0760
     38 H4          5.1093   13.3315    3.7875 H         1 <0>         0.1584
     39 H5          3.9560   13.9692    1.7214 H         1 <0>         0.1721
     40 H6          2.5288    9.9746    4.1984 H         1 <0>         0.1854
     41 H7         -1.4399    9.8507    1.0037 H         1 <0>         0.1542
     42 H8         -2.8946    7.1464   -2.9583 H         1 <0>         0.1188
     43 H9         -1.7462    7.0154   -4.3119 H         1 <0>         0.1220
     44 H10        -4.5158    8.9469   -2.8746 H         1 <0>         0.1449
     45 H11        -5.8565   10.5637   -4.1571 H         1 <0>         0.1394
     46 H12        -1.7643    8.6342   -6.1179 H         1 <0>         0.1515
     47 H13        -4.4927   11.7897   -8.7175 H         1 <0>         0.1339
     48 H14        -3.5170   12.5418   -7.4172 H         1 <0>         0.0844
     49 H15        -0.4122   11.8289   -1.3355 H         1 <0>         0.4168
     50 H16         0.6959   14.4099   -1.0408 H         1 <0>         0.0856
     51 H17         1.8366   13.4131   -1.9753 H         1 <0>         0.0941
     52 H18         0.3442   14.5847   -3.5223 H         1 <0>         0.0714
     53 H19        -0.0308   12.8450   -3.5571 H         1 <0>         0.0542
     54 H20        -2.0004   14.1753   -3.3196 H         1 <0>         0.3848
@<TRIPOS>BOND
     1    1    2 1
     2    1   35 1
     3    1   36 1
     4    1   37 1
     5    2   12 2
     6    2    3 1
     7    3    4 2
     8    3   38 1
     9    4    5 1
    10    4   39 1
    11    5   11 1
    12    5    6 2
    13    6    7 1
    14    7    8 2
    15    7   31 1
    16    8    9 1
    17    8   13 1
    18    9   10 2
    19    9   11 am
    20   11   12 1
    21   12   40 1
    22   13   14 2
    23   13   41 1
    24   14   20 1
    25   14   15 1
    26   15   16 2
    27   15   17 am
    28   17   18 1
    29   17   21 1
    30   18   19 2
    31   18   20 1
    32   21   22 1
    33   21   42 1
    34   21   43 1
    35   22   27 ar
    36   22   23 ar
    37   23   24 ar
    38   23   44 1
    39   24   25 ar
    40   24   45 1
    41   25   30 1
    42   25   26 ar
    43   26   27 ar
    44   26   28 1
    45   27   46 1
    46   28   29 1
    47   29   30 1
    48   29   47 1
    49   29   48 1
    50   31   32 1
    51   31   49 1
    52   32   33 1
    53   32   50 1
    54   32   51 1
    55   33   34 1
    56   33   52 1
    57   33   53 1
    58   34   54 1
@<TRIPOS>MOLECULE
ZINC12687918
   56    60     0     0     0
SMALL
USER_CHARGES
N'-[1-(2,5-dioxabicyclo[4.4.0]deca-7,9,11-trien-8-yl)-5-oxo-pyrrolidin-3-yl]carbonyl-4-methyl-2-phenyl-thiazole-5-carbohydrazide
@<TRIPOS>ATOM
      1 C1        -10.0697   12.1970    0.0187 C.3       1 <0>        -0.0951
      2 C2        -10.3340   10.8637   -0.6321 C.2       1 <0>         0.1753
      3 C3         -9.2899   10.0632   -1.0779 C.2       1 <0>        -0.2869
      4 S1        -10.1994    8.6660   -1.7219 S.3       1 <0>         0.1146
      5 C4        -11.7952    9.2501   -1.3644 C.2       1 <0>         0.1618
      6 N1        -11.5517   10.4247   -0.7996 N.2       1 <0>        -0.5135
      7 C5        -13.0973    8.6007   -1.6236 C.ar      1 <0>        -0.0353
      8 C6        -14.2836    9.2358   -1.2525 C.ar      1 <0>        -0.0608
      9 C7        -15.4959    8.6271   -1.5034 C.ar      1 <0>        -0.1218
     10 C8        -15.5370    7.3842   -2.1099 C.ar      1 <0>        -0.0905
     11 C9        -14.3646    6.7465   -2.4747 C.ar      1 <0>        -0.1185
     12 C10       -13.1459    7.3470   -2.2355 C.ar      1 <0>        -0.0868
     13 C11        -7.8435   10.2967   -1.0281 C.2       1 <0>         0.6208
     14 O1         -7.4095   11.3251   -0.5431 O.2       1 <0>        -0.5158
     15 N2         -6.9944    9.3726   -1.5195 N.am      1 <0>        -0.5189
     16 N3         -5.6121    9.5958   -1.4719 N.am      1 <0>        -0.5139
     17 C12        -4.7630    8.6717   -1.9633 C.2       1 <0>         0.5212
     18 O2         -5.1955    7.6469   -2.4467 O.2       1 <0>        -0.5214
     19 C13        -3.2761    8.9117   -1.9122 C.3       1 <0>        -0.1134
     20 H1         -3.0041    9.7885   -2.4999 H         1 <0>         0.1445
     21 C14        -2.7881    9.0515   -0.4516 C.3       1 <0>        -0.1475
     22 C15        -2.3604    7.6520   -0.0679 C.2       1 <0>         0.5143
     23 O3         -2.1785    7.2681    1.0682 O.2       1 <0>        -0.4986
     24 N4         -2.2108    6.8960   -1.1692 N.am      1 <0>        -0.5523
     25 C16        -2.4920    7.6660   -2.3866 C.3       1 <0>         0.1105
     26 C17        -1.8296    5.5480   -1.1569 C.ar      1 <0>         0.1715
     27 C18        -1.8167    4.8189   -2.3384 C.ar      1 <0>        -0.1475
     28 C19        -1.4427    3.4893   -2.3265 C.ar      1 <0>        -0.0840
     29 C20        -1.0791    2.8783   -1.1354 C.ar      1 <0>         0.0267
     30 C21        -1.0884    3.6062    0.0486 C.ar      1 <0>         0.0804
     31 C22        -1.4651    4.9405    0.0363 C.ar      1 <0>        -0.1525
     32 O4         -0.7270    3.0262    1.2258 O.3       1 <0>        -0.3035
     33 C23        -0.7135    1.5950    1.2617 C.3       1 <0>         0.0198
     34 C24         0.0011    1.0897    0.0011 C.3       1 <0>         0.0205
     35 O5         -0.7164    1.5655   -1.1429 O.3       1 <0>        -0.3069
     36 H2        -10.0481   12.9755   -0.7439 H         1 <0>         0.0859
     37 H3        -10.8603   12.4138    0.7370 H         1 <0>         0.0797
     38 H4         -9.1095   12.1660    0.5336 H         1 <0>         0.0975
     39 H5        -14.2527   10.2039   -0.7747 H         1 <0>         0.1385
     40 H6        -16.4148    9.1197   -1.2215 H         1 <0>         0.1342
     41 H7        -16.4885    6.9099   -2.2997 H         1 <0>         0.1317
     42 H8        -14.4037    5.7765   -2.9481 H         1 <0>         0.1346
     43 H9        -12.2315    6.8482   -2.5208 H         1 <0>         0.1284
     44 H10        -7.3403    8.5530   -1.9061 H         1 <0>         0.4322
     45 H11        -5.2662   10.4154   -1.0853 H         1 <0>         0.4362
     46 H12        -3.6000    9.3919    0.1910 H         1 <0>         0.1134
     47 H13        -1.9429    9.7375   -0.3957 H         1 <0>         0.1314
     48 H14        -1.5606    7.9639   -2.8680 H         1 <0>         0.1010
     49 H15        -3.1007    7.0774   -3.0730 H         1 <0>         0.1102
     50 H16        -2.0990    5.2918   -3.2675 H         1 <0>         0.1373
     51 H17        -1.4336    2.9239   -3.2466 H         1 <0>         0.1412
     52 H18        -1.4754    5.5070    0.9557 H         1 <0>         0.1663
     53 H19        -1.7363    1.2186    1.2803 H         1 <0>         0.0787
     54 H20        -0.1796    1.2539    2.1486 H         1 <0>         0.1240
     55 H21         0.0157   -0.0002   -0.0013 H         1 <0>         0.1232
     56 H22         1.0220    1.4710   -0.0206 H         1 <0>         0.0779
@<TRIPOS>BOND
     1    1    2 1
     2    1   36 1
     3    1   37 1
     4    1   38 1
     5    2    6 1
     6    2    3 2
     7    3    4 1
     8    3   13 1
     9    4    5 1
    10    5    6 2
    11    5    7 1
    12    7   12 ar
    13    7    8 ar
    14    8    9 ar
    15    8   39 1
    16    9   10 ar
    17    9   40 1
    18   10   11 ar
    19   10   41 1
    20   11   12 ar
    21   11   42 1
    22   12   43 1
    23   13   14 2
    24   13   15 am
    25   15   16 1
    26   15   44 1
    27   16   17 am
    28   16   45 1
    29   17   18 2
    30   17   19 1
    31   19   20 1
    32   19   25 1
    33   19   21 1
    34   21   22 1
    35   21   46 1
    36   21   47 1
    37   22   23 2
    38   22   24 am
    39   24   25 1
    40   24   26 1
    41   25   48 1
    42   25   49 1
    43   26   31 ar
    44   26   27 ar
    45   27   28 ar
    46   27   50 1
    47   28   29 ar
    48   28   51 1
    49   29   35 1
    50   29   30 ar
    51   30   31 ar
    52   30   32 1
    53   31   52 1
    54   32   33 1
    55   33   34 1
    56   33   53 1
    57   33   54 1
    58   34   35 1
    59   34   55 1
    60   34   56 1
@<TRIPOS>MOLECULE
ZINC25337938
   53    57     0     0     0
SMALL
USER_CHARGES
N'-(1,3-diphenylpyrazole-4-carbonyl)-6-imidazol-1-yl-pyridine-3-carbohydrazide
@<TRIPOS>ATOM
      1 C1          1.2078   -0.6820   -0.0131 C.ar      1 <0>        -0.1004
      2 C2          0.0021   -0.0041    0.0020 C.ar      1 <0>        -0.1329
      3 C3         -0.0166    1.3758    0.0096 C.ar      1 <0>        -0.0832
      4 C4          1.1826    2.0865    0.0020 C.ar      1 <0>        -0.0397
      5 C5          2.3945    1.3979   -0.0133 C.ar      1 <0>        -0.0513
      6 C6          2.4009    0.0179   -0.0208 C.ar      1 <0>        -0.1299
      7 C7          1.1691    3.5690    0.0096 C.2       1 <0>         0.1918
      8 C8          2.1330    4.4464    0.6812 C.2       1 <0>        -0.2675
      9 C9          1.7310    5.7398    0.4190 C.2       1 <0>         0.1077
     10 N1          0.6241    5.6812   -0.3420 N.pl3     1 <0>        -0.3022
     11 N2          0.2943    4.3456   -0.5890 N.2       1 <0>        -0.2730
     12 C10        -0.0873    6.7899   -0.8188 C.ar      1 <0>         0.1438
     13 C11         0.3363    8.0750   -0.5069 C.ar      1 <0>        -0.1371
     14 C12        -0.3645    9.1660   -0.9824 C.ar      1 <0>        -0.0919
     15 C13        -1.4930    8.9795   -1.7596 C.ar      1 <0>        -0.1210
     16 C14        -1.9204    7.7009   -2.0675 C.ar      1 <0>        -0.0948
     17 C15        -1.2209    6.6059   -1.5994 C.ar      1 <0>        -0.1114
     18 C16         3.2994    4.0295    1.4779 C.2       1 <0>         0.6014
     19 O1          3.5403    2.8472    1.6307 O.2       1 <0>        -0.5304
     20 N3          4.0999    4.9581    2.0378 N.am      1 <0>        -0.5301
     21 N4          5.2094    4.5615    2.7957 N.am      1 <0>        -0.5227
     22 C17         6.0099    5.4901    3.3555 C.2       1 <0>         0.5717
     23 O2          5.7691    6.6720    3.2028 O.2       1 <0>        -0.5378
     24 C18         7.1793    5.0721    4.1543 C.ar      1 <0>        -0.1942
     25 C19         8.0224    6.0295    4.7366 C.ar      1 <0>         0.0199
     26 C20         9.1001    5.5896    5.4782 C.ar      1 <0>        -0.1864
     27 C21         9.3191    4.2222    5.6145 C.ar      1 <0>         0.3792
     28 N5          8.5071    3.3427    5.0478 N.ar      1 <0>        -0.4987
     29 C22         7.4653    3.7184    4.3362 C.ar      1 <0>         0.1767
     30 N6         10.4092    3.7713    6.3590 N.pl3     1 <0>        -0.4179
     31 C23        10.7579    2.4635    6.5856 C.2       1 <0>        -0.0249
     32 C24        11.8670    2.4826    7.3479 C.2       1 <0>        -0.0241
     33 N7         12.1922    3.7628    7.5840 N.2       1 <0>        -0.4720
     34 C25        11.3310    4.5444    6.9929 C.2       1 <0>         0.1968
     35 H1          1.2176   -1.7620   -0.0187 H         1 <0>         0.1233
     36 H2         -0.9264   -0.5557    0.0076 H         1 <0>         0.1254
     37 H3         -0.9586    1.9041    0.0169 H         1 <0>         0.1239
     38 H4          3.3266    1.9433   -0.0193 H         1 <0>         0.1425
     39 H5          3.3393   -0.5167   -0.0322 H         1 <0>         0.1254
     40 H6          2.2191    6.6396    0.7632 H         1 <0>         0.1896
     41 H7          1.2152    8.2213    0.1035 H         1 <0>         0.1316
     42 H8         -0.0330   10.1658   -0.7438 H         1 <0>         0.1366
     43 H9         -2.0415    9.8342   -2.1271 H         1 <0>         0.1322
     44 H10        -2.8023    7.5585   -2.6744 H         1 <0>         0.1355
     45 H11        -1.5550    5.6076   -1.8406 H         1 <0>         0.1403
     46 H12         3.8820    6.0274    1.8996 H         1 <0>         0.4536
     47 H13         5.4272    3.4922    2.9339 H         1 <0>         0.4573
     48 H14         7.8310    7.0850    4.6109 H         1 <0>         0.1630
     49 H15         9.7682    6.2987    5.9443 H         1 <0>         0.1553
     50 H16         6.8256    2.9718    3.8892 H         1 <0>         0.1704
     51 H17        10.2415    1.5873    6.2224 H         1 <0>         0.1857
     52 H18        12.4029    1.6167    7.7075 H         1 <0>         0.1800
     53 H19        11.3460    5.6242    7.0071 H         1 <0>         0.2150
@<TRIPOS>BOND
     1    1    6 ar
     2    1    2 ar
     3    1   35 1
     4    2    3 ar
     5    2   36 1
     6    3    4 ar
     7    3   37 1
     8    4    5 ar
     9    4    7 1
    10    5    6 ar
    11    5   38 1
    12    6   39 1
    13    7   11 2
    14    7    8 1
    15    8    9 2
    16    8   18 1
    17    9   10 1
    18    9   40 1
    19   10   11 1
    20   10   12 1
    21   12   17 ar
    22   12   13 ar
    23   13   14 ar
    24   13   41 1
    25   14   15 ar
    26   14   42 1
    27   15   16 ar
    28   15   43 1
    29   16   17 ar
    30   16   44 1
    31   17   45 1
    32   18   19 2
    33   18   20 am
    34   20   21 1
    35   20   46 1
    36   21   22 am
    37   21   47 1
    38   22   23 2
    39   22   24 1
    40   24   29 ar
    41   24   25 ar
    42   25   26 ar
    43   25   48 1
    44   26   27 ar
    45   26   49 1
    46   27   28 ar
    47   27   30 1
    48   28   29 ar
    49   29   50 1
    50   30   34 1
    51   30   31 1
    52   31   32 2
    53   31   51 1
    54   32   33 1
    55   32   52 1
    56   33   34 2
    57   34   53 1
@<TRIPOS>MOLECULE
ZINC26689571
   51    54     0     0     0
SMALL
USER_CHARGES

@<TRIPOS>ATOM
      1 C1          1.1462    0.9439   -0.3817 C.3       1 <0>         0.0766
      2 N1          0.0574    0.0291   -0.0296 N.pl3     1 <0>        -0.9512
      3 C2         -0.0292   -0.4879    1.2650 C.ar      1 <0>         0.1412
      4 C3          0.2142   -1.8362    1.4938 C.ar      1 <0>        -0.1270
      5 C4          0.1282   -2.3441    2.7752 C.ar      1 <0>        -0.1024
      6 C5         -0.2002   -1.5121    3.8298 C.ar      1 <0>        -0.1150
      7 C6         -0.4431   -0.1693    3.6056 C.ar      1 <0>        -0.1045
      8 C7         -0.3532    0.3462    2.3275 C.ar      1 <0>        -0.1127
      9 S1         -1.0707   -0.3918   -1.1665 S.o2      1 <0>         2.6844
     10 O1         -2.1795   -0.9294   -0.4588 O.2       1 <0>        -0.9353
     11 O2         -1.1937    0.7170   -2.0466 O.2       1 <0>        -0.9414
     12 C8         -0.3889   -1.7126   -2.1127 C.ar      1 <0>        -0.6536
     13 C9          0.4739   -1.4368   -3.1586 C.ar      1 <0>        -0.0237
     14 C10         1.0115   -2.4663   -3.9032 C.ar      1 <0>        -0.0725
     15 C11         0.6833   -3.7884   -3.5993 C.ar      1 <0>        -0.0718
     16 C12        -0.1877   -4.0598   -2.5430 C.ar      1 <0>        -0.1052
     17 C13        -0.7142   -3.0213   -1.8030 C.ar      1 <0>        -0.0245
     18 C14         1.2553   -4.8967   -4.3933 C.2       1 <0>         0.5588
     19 O3          2.0132   -4.6574   -5.3130 O.2       1 <0>        -0.5224
     20 N2          0.9364   -6.1723   -4.0974 N.am      1 <0>        -0.5129
     21 N3          1.4785   -7.2225   -4.8498 N.am      1 <0>        -0.5165
     22 C15         1.1595   -8.4981   -4.5539 C.2       1 <0>         0.5710
     23 O4          0.4014   -8.7375   -3.6340 O.2       1 <0>        -0.5275
     24 C16         1.7307   -9.6045   -5.3466 C.ar      1 <0>        -0.1250
     25 C17         2.6064   -9.3318   -6.4003 C.ar      1 <0>        -0.0692
     26 C18         3.1386  -10.3657   -7.1390 C.ar      1 <0>        -0.1060
     27 C19         2.8072  -11.6807   -6.8406 C.ar      1 <0>         0.0695
     28 C20         1.9329  -11.9598   -5.7895 C.ar      1 <0>         0.0262
     29 C21         1.4012  -10.9276   -5.0413 C.ar      1 <0>        -0.0346
     30 O5          1.7721  -13.3131   -5.7047 O.3       1 <0>        -0.3023
     31 C22         2.2307  -13.8337   -6.9663 C.3       1 <0>         0.2117
     32 O6          3.1918  -12.8583   -7.4105 O.3       1 <0>        -0.3022
     33 H1          1.9974    0.3710   -0.7496 H         1 <0>         0.0638
     34 H2          0.8075    1.6302   -1.1578 H         1 <0>         0.0902
     35 H3          1.4439    1.5110    0.5002 H         1 <0>         0.0851
     36 H4          0.4701   -2.4867    0.6705 H         1 <0>         0.1231
     37 H5          0.3173   -3.3923    2.9538 H         1 <0>         0.1299
     38 H6         -0.2675   -1.9120    4.8308 H         1 <0>         0.1282
     39 H7         -0.6994    0.4777    4.4314 H         1 <0>         0.1303
     40 H8         -0.5386    1.3959    2.1537 H         1 <0>         0.1291
     41 H9          0.7267   -0.4133   -3.3929 H         1 <0>         0.1503
     42 H10         1.6846   -2.2496   -4.7195 H         1 <0>         0.1524
     43 H11        -0.4457   -5.0806   -2.3028 H         1 <0>         0.1403
     44 H12        -1.3851   -3.2300   -0.9828 H         1 <0>         0.1533
     45 H13         0.3315   -6.3633   -3.3635 H         1 <0>         0.4347
     46 H14         2.0833   -7.0315   -5.5837 H         1 <0>         0.4342
     47 H15         2.8660   -8.3103   -6.6360 H         1 <0>         0.1438
     48 H16         3.8154  -10.1527   -7.9532 H         1 <0>         0.1483
     49 H17         0.7280  -11.1426   -4.2246 H         1 <0>         0.1533
     50 H18         2.7060  -14.8050   -6.8297 H         1 <0>         0.1383
     51 H19         1.4044  -13.9067   -7.6734 H         1 <0>         0.0911
@<TRIPOS>BOND
     1    1    2 1
     2    1   33 1
     3    1   34 1
     4    1   35 1
     5    2    3 1
     6    2    9 1
     7    3    8 ar
     8    3    4 ar
     9    4    5 ar
    10    4   36 1
    11    5    6 ar
    12    5   37 1
    13    6    7 ar
    14    6   38 1
    15    7    8 ar
    16    7   39 1
    17    8   40 1
    18    9   10 2
    19    9   11 2
    20    9   12 1
    21   12   17 ar
    22   12   13 ar
    23   13   14 ar
    24   13   41 1
    25   14   15 ar
    26   14   42 1
    27   15   16 ar
    28   15   18 1
    29   16   17 ar
    30   16   43 1
    31   17   44 1
    32   18   19 2
    33   18   20 am
    34   20   21 1
    35   20   45 1
    36   21   22 am
    37   21   46 1
    38   22   23 2
    39   22   24 1
    40   24   29 ar
    41   24   25 ar
    42   25   26 ar
    43   25   47 1
    44   26   27 ar
    45   26   48 1
    46   27   32 1
    47   27   28 ar
    48   28   29 ar
    49   28   30 1
    50   29   49 1
    51   30   31 1
    52   31   32 1
    53   31   50 1
    54   31   51 1
@<TRIPOS>MOLECULE
ZINC25018201
   57    61     0     0     0
SMALL
USER_CHARGES

@<TRIPOS>ATOM
      1 C1         -0.0887    1.8079   -0.0587 C.3       1 <0>        -0.1702
      2 C2         -0.0540    0.2789   -0.0158 C.3       1 <0>         0.0876
      3 N1          0.6424   -0.2272   -1.2011 N.am      1 <0>        -0.5106
      4 C3         -0.0554   -0.5033   -2.3574 C.ar      1 <0>         0.1755
      5 C4         -1.4338   -0.3017   -2.4077 C.ar      1 <0>        -0.1626
      6 C5         -2.1278   -0.5734   -3.5492 C.ar      1 <0>        -0.0280
      7 C6         -1.4661   -1.0586   -4.6864 C.ar      1 <0>        -0.1672
      8 C7         -0.0927   -1.2668   -4.6597 C.ar      1 <0>         0.0355
      9 C8          0.6265   -0.9897   -3.4902 C.ar      1 <0>         0.0186
     10 N2          1.9590   -1.1883   -3.4560 N.2       1 <0>        -0.4033
     11 C9          2.6475   -0.9375   -2.3799 C.2       1 <0>         0.1221
     12 C10         1.9783   -0.4249   -1.1786 C.2       1 <0>         0.4957
     13 O1          2.6195   -0.1844   -0.1719 O.2       1 <0>        -0.5003
     14 C11         4.1365   -1.1693   -2.3695 C.3       1 <0>        -0.0924
     15 C12        -2.2312   -1.3495   -5.9155 C.2       1 <0>         0.5653
     16 O2         -1.6591   -1.7702   -6.9023 O.2       1 <0>        -0.5103
     17 N3         -3.5636   -1.1486   -5.9433 N.am      1 <0>        -0.6577
     18 C13        -4.2668   -1.3084   -7.1339 C.ar      1 <0>         0.2223
     19 C14        -3.6200   -1.1524   -8.3529 C.ar      1 <0>        -0.1434
     20 C15        -4.3194   -1.3108   -9.5321 C.ar      1 <0>        -0.0601
     21 C16        -5.6686   -1.6258   -9.5105 C.ar      1 <0>        -0.1460
     22 C17        -6.3271   -1.7849   -8.3106 C.ar      1 <0>        -0.0608
     23 C18        -5.6314   -1.6335   -7.1086 C.ar      1 <0>        -0.1855
     24 C19        -6.3287   -1.8079   -5.8208 C.2       1 <0>         0.5742
     25 O3         -5.7451   -1.5827   -4.7779 O.2       1 <0>        -0.5291
     26 N4         -7.6127   -2.2169   -5.7997 N.am      1 <0>        -0.6579
     27 C20        -8.2383   -2.4972   -4.5787 C.ar      1 <0>         0.1589
     28 C21        -9.6188   -2.3976   -4.4668 C.ar      1 <0>        -0.1371
     29 C22       -10.2375   -2.6743   -3.2627 C.ar      1 <0>        -0.0764
     30 C23        -9.4828   -3.0518   -2.1638 C.ar      1 <0>         0.0149
     31 C24        -8.0978   -3.1525   -2.2728 C.ar      1 <0>         0.0560
     32 C25        -7.4790   -2.8801   -3.4814 C.ar      1 <0>        -0.1130
     33 O4         -7.5917   -3.5363   -1.0645 O.3       1 <0>        -0.3058
     34 C26        -8.6361   -3.2733   -0.1088 C.3       1 <0>         0.2132
     35 O5         -9.8440   -3.3729   -0.8861 O.3       1 <0>        -0.3077
     36 H1          0.9305    2.1941   -0.0738 H         1 <0>         0.0654
     37 H2         -0.6143    2.1344   -0.9560 H         1 <0>         0.0625
     38 H3         -0.6068    2.1844    0.8233 H         1 <0>         0.0813
     39 H4          0.4716   -0.0476    0.8815 H         1 <0>         0.1041
     40 H5         -1.0732   -0.1073   -0.0006 H         1 <0>         0.0965
     41 H6         -1.9544    0.0713   -1.5381 H         1 <0>         0.1458
     42 H7         -3.1957   -0.4141   -3.5778 H         1 <0>         0.1417
     43 H8          0.4171   -1.6408   -5.5353 H         1 <0>         0.1602
     44 H9          4.4526   -1.5445   -3.3428 H         1 <0>         0.0904
     45 H10         4.6488   -0.2308   -2.1580 H         1 <0>         0.0893
     46 H11         4.3850   -1.9003   -1.6001 H         1 <0>         0.0895
     47 H12        -4.0325   -0.8927   -5.1337 H         1 <0>         0.4257
     48 H13        -2.5687   -0.9065   -8.3781 H         1 <0>         0.1554
     49 H14        -3.8120   -1.1881  -10.4776 H         1 <0>         0.1351
     50 H15        -6.2070   -1.7469  -10.4389 H         1 <0>         0.1337
     51 H16        -7.3787   -2.0305   -8.2994 H         1 <0>         0.1302
     52 H17        -8.1035   -2.3172   -6.6303 H         1 <0>         0.4171
     53 H18       -10.2095   -2.1033   -5.3217 H         1 <0>         0.1432
     54 H19       -11.3113   -2.5960   -3.1779 H         1 <0>         0.1424
     55 H20        -6.4057   -2.9616   -3.5692 H         1 <0>         0.1568
     56 H21        -8.6276   -4.0218    0.6834 H         1 <0>         0.1334
     57 H22        -8.5304   -2.2717    0.3080 H         1 <0>         0.0858
@<TRIPOS>BOND
     1    1    2 1
     2    1   36 1
     3    1   37 1
     4    1   38 1
     5    2    3 1
     6    2   39 1
     7    2   40 1
     8    3   12 am
     9    3    4 1
    10    4    9 ar
    11    4    5 ar
    12    5    6 ar
    13    5   41 1
    14    6    7 ar
    15    6   42 1
    16    7    8 ar
    17    7   15 1
    18    8    9 ar
    19    8   43 1
    20    9   10 1
    21   10   11 2
    22   11   12 1
    23   11   14 1
    24   12   13 2
    25   14   44 1
    26   14   45 1
    27   14   46 1
    28   15   16 2
    29   15   17 am
    30   17   18 1
    31   17   47 1
    32   18   23 ar
    33   18   19 ar
    34   19   20 ar
    35   19   48 1
    36   20   21 ar
    37   20   49 1
    38   21   22 ar
    39   21   50 1
    40   22   23 ar
    41   22   51 1
    42   23   24 1
    43   24   25 2
    44   24   26 am
    45   26   27 1
    46   26   52 1
    47   27   32 ar
    48   27   28 ar
    49   28   29 ar
    50   28   53 1
    51   29   30 ar
    52   29   54 1
    53   30   35 1
    54   30   31 ar
    55   31   32 ar
    56   31   33 1
    57   32   55 1
    58   33   34 1
    59   34   35 1
    60   34   56 1
    61   34   57 1
@<TRIPOS>MOLECULE
ZINC01221378
   62    66     0     0     0
SMALL
USER_CHARGES
amino-diethylamino-(7,8-dimethyl-2-oxo-1H-quinolin-3-yl)-oxo-BLAHcarbonitrile
@<TRIPOS>ATOM
      1 C1         -0.5765    4.4111    1.4749 C.3       1 <0>        -0.1751
      2 C2         -0.1428    4.1752    0.0268 C.3       1 <0>         0.1115
      3 N1          1.1434    3.4740    0.0103 N.pl3     1 <0>        -0.6095
      4 C3          2.3938    4.2373    0.0024 C.3       1 <0>         0.1087
      5 C4          2.8150    4.5113   -1.4427 C.3       1 <0>        -0.1746
      6 C5          1.1774    2.0825    0.0020 C.ar      1 <0>         0.2845
      7 C6         -0.0164    1.3605    0.0095 C.ar      1 <0>        -0.2153
      8 C7          0.0021   -0.0041    0.0020 C.ar      1 <0>         0.0097
      9 C8          1.2244   -0.6826   -0.0132 C.ar      1 <0>        -0.2083
     10 C9          2.4318    0.0379   -0.0218 C.ar      1 <0>         0.2204
     11 C10         2.3982    1.4235   -0.0138 C.ar      1 <0>        -0.2283
     12 O1          3.6086   -0.6246   -0.0381 O.3       1 <0>        -0.2713
     13 C11         3.6624   -1.9660   -0.0440 C.2       1 <0>         0.5354
     14 O2          4.7504   -2.5151   -0.0584 O.2       1 <0>        -0.4582
     15 C12         2.5005   -2.7540   -0.0344 C.2       1 <0>        -0.3076
     16 C13         1.2759   -2.1509   -0.0201 C.2       1 <0>         0.2785
     17 O3          0.1370   -2.8692   -0.0127 O.3       1 <0>        -0.2162
     18 C14         0.1532   -4.1586   -0.3956 C.2       1 <0>         0.4544
     19 C15         1.3026   -4.8744   -0.4302 C.2       1 <0>        -0.2696
     20 C16         2.6153   -4.2546   -0.0395 C.3       1 <0>         0.1379
     21 H1          3.3831   -4.5556   -0.7522 H         1 <0>         0.1035
     22 C17         3.0021   -4.7305    1.3371 C.2       1 <0>        -0.1834
     23 C18         4.1541   -5.4237    1.5133 C.2       1 <0>         0.0013
     24 C19         4.5011   -5.8718    2.8633 C.ar      1 <0>        -0.1302
     25 C20         5.6763   -6.5902    3.1074 C.ar      1 <0>        -0.0540
     26 C21         5.9715   -6.9937    4.3786 C.ar      1 <0>        -0.1469
     27 C22         5.1156   -6.6971    5.4308 C.ar      1 <0>        -0.0336
     28 C23         3.9528   -5.9902    5.2136 C.ar      1 <0>        -0.1347
     29 C24         3.6309   -5.5692    3.9274 C.ar      1 <0>         0.1899
     30 N2          2.4745   -4.8601    3.6815 N.am      1 <0>        -0.6330
     31 H2          1.8556   -4.6491    4.4381 H         1 <0>         0.4178
     32 C25         2.1668   -4.4481    2.4391 C.2       1 <0>         0.5481
     33 O4          1.1383   -3.8192    2.2593 O.2       1 <0>        -0.5351
     34 C26         3.0329   -5.6752    6.3650 C.3       1 <0>        -0.1172
     35 C27         5.4620   -7.1525    6.8249 C.3       1 <0>        -0.1234
     36 C28         1.2668   -6.2441   -0.8464 C.1       1 <0>         0.2738
     37 N3          1.2383   -7.3308   -1.1765 N.1       1 <0>        -0.4430
     38 N4         -1.0237   -4.7637   -0.7599 N.pl3     1 <0>        -0.8282
     39 H3         -1.5334    4.9328    1.4872 H         1 <0>         0.0687
     40 H4         -0.6785    3.4529    1.9843 H         1 <0>         0.0611
     41 H5          0.1735    5.0157    1.9849 H         1 <0>         0.0587
     42 H6         -0.0408    5.1334   -0.4826 H         1 <0>         0.0810
     43 H7         -0.8928    3.5707   -0.4832 H         1 <0>         0.0817
     44 H8          2.2452    5.1833    0.5231 H         1 <0>         0.0810
     45 H9          3.1726    3.6641    0.5054 H         1 <0>         0.0822
     46 H10         2.9636    3.5653   -1.9634 H         1 <0>         0.0616
     47 H11         2.0363    5.0845   -1.9457 H         1 <0>         0.0583
     48 H12         3.7454    5.0792   -1.4486 H         1 <0>         0.0693
     49 H13        -0.9607    1.8846    0.0168 H         1 <0>         0.1385
     50 H14        -0.9249   -0.5582    0.0082 H         1 <0>         0.1423
     51 H15         3.3188    1.9880   -0.0194 H         1 <0>         0.1481
     52 H16         4.8012   -5.6407    0.6764 H         1 <0>         0.1461
     53 H17         6.3474   -6.8246    2.2944 H         1 <0>         0.1360
     54 H18         6.8787   -7.5486    4.5669 H         1 <0>         0.1300
     55 H19         3.3159   -4.7190    6.8051 H         1 <0>         0.0750
     56 H20         2.0057   -5.6195    6.0046 H         1 <0>         0.0605
     57 H21         3.1117   -6.4593    7.1180 H         1 <0>         0.0807
     58 H22         6.0501   -6.3819    7.3233 H         1 <0>         0.0774
     59 H23         4.5454   -7.3306    7.3872 H         1 <0>         0.0736
     60 H24         6.0411   -8.0745    6.7725 H         1 <0>         0.0715
     61 H25        -1.0255   -5.6930   -1.0378 H         1 <0>         0.4265
     62 H26        -1.8536   -4.2620   -0.7394 H         1 <0>         0.4114
@<TRIPOS>BOND
     1    1    2 1
     2    1   39 1
     3    1   40 1
     4    1   41 1
     5    2    3 1
     6    2   42 1
     7    2   43 1
     8    3    4 1
     9    3    6 1
    10    4    5 1
    11    4   44 1
    12    4   45 1
    13    5   46 1
    14    5   47 1
    15    5   48 1
    16    6   11 ar
    17    6    7 ar
    18    7    8 ar
    19    7   49 1
    20    8    9 ar
    21    8   50 1
    22    9   16 1
    23    9   10 ar
    24   10   11 ar
    25   10   12 1
    26   11   51 1
    27   12   13 1
    28   13   14 2
    29   13   15 1
    30   15   20 1
    31   15   16 2
    32   16   17 1
    33   17   18 1
    34   18   19 2
    35   18   38 1
    36   19   20 1
    37   19   36 1
    38   20   21 1
    39   20   22 1
    40   22   32 1
    41   22   23 2
    42   23   24 1
    43   23   52 1
    44   24   29 ar
    45   24   25 ar
    46   25   26 ar
    47   25   53 1
    48   26   27 ar
    49   26   54 1
    50   27   28 ar
    51   27   35 1
    52   28   29 ar
    53   28   34 1
    54   29   30 1
    55   30   31 1
    56   30   32 am
    57   32   33 2
    58   34   55 1
    59   34   56 1
    60   34   57 1
    61   35   58 1
    62   35   59 1
    63   35   60 1
    64   36   37 3
    65   38   61 1
    66   38   62 1
@<TRIPOS>MOLECULE
ZINC12407322
   61    65     0     0     0
SMALL
USER_CHARGES
(5S)-2-(4-benzyl-1-piperidyl)-N-(4-fluorophenyl)-4,7-dioxo-3,5,6,8-tetrahydropyrido[2,3-d]pyrimidine-5-carboxamide
@<TRIPOS>ATOM
      1 C1          7.7168    6.5993   -3.9936 C.ar      1 <0>        -0.1240
      2 C2          7.0333    6.9532   -2.8454 C.ar      1 <0>        -0.1182
      3 C3          6.9048    6.0461   -1.8102 C.ar      1 <0>        -0.1184
      4 C4          7.4589    4.7848   -1.9237 C.ar      1 <0>        -0.0824
      5 C5          8.1465    4.4325   -3.0699 C.ar      1 <0>        -0.1181
      6 C6          8.2714    5.3381   -4.1069 C.ar      1 <0>        -0.1174
      7 C7          7.3187    3.7959   -0.7952 C.3       1 <0>        -0.0754
      8 C8          6.0435    2.9740   -0.9928 C.3       1 <0>        -0.0867
      9 C9          5.9638    1.8867    0.0824 C.3       1 <0>        -0.1184
     10 C10         4.6579    1.1062   -0.0842 C.3       1 <0>         0.0716
     11 N1          3.5185    2.0245    0.0375 N.pl3     1 <0>        -0.4682
     12 C11         3.5479    3.0495   -1.0137 C.3       1 <0>         0.0514
     13 C12         4.8206    3.8879   -0.8749 C.3       1 <0>        -0.1149
     14 C13         2.3326    1.3399    0.0222 C.2       1 <0>         0.6104
     15 N2          1.1632    2.0357    0.0214 N.am      1 <0>        -0.6373
     16 H1          1.1762    3.0056    0.0202 H         1 <0>         0.4212
     17 C14        -0.0155    1.3766    0.0221 C.2       1 <0>         0.5601
     18 O1         -1.0716    1.9889    0.0323 O.2       1 <0>        -0.5140
     19 C15        -0.0015   -0.0216    0.0050 C.2       1 <0>        -0.3403
     20 C16         1.2133   -0.6828   -0.0115 C.2       1 <0>         0.4641
     21 N3          2.3500    0.0236    0.0083 N.2       1 <0>        -0.5893
     22 N4          1.2546   -2.0655   -0.0561 N.am      1 <0>        -0.6411
     23 C17         0.1555   -2.7797   -0.3529 C.2       1 <0>         0.5382
     24 O2          0.1890   -3.9896   -0.2805 O.2       1 <0>        -0.4958
     25 C18        -1.1172   -2.0938   -0.7749 C.3       1 <0>        -0.1310
     26 C19        -1.2914   -0.7970    0.0175 C.3       1 <0>        -0.0202
     27 H2         -1.5627   -1.0339    1.0463 H         1 <0>         0.1014
     28 C20        -2.3816    0.0321   -0.6110 C.2       1 <0>         0.5473
     29 O3         -2.2372    0.4756   -1.7306 O.2       1 <0>        -0.5086
     30 N5         -3.5171    0.2809    0.0711 N.am      1 <0>        -0.6673
     31 C21        -4.5753    0.9534   -0.5523 C.ar      1 <0>         0.1498
     32 C22        -5.3771    1.8185    0.1803 C.ar      1 <0>        -0.1159
     33 C23        -6.4162    2.4860   -0.4380 C.ar      1 <0>        -0.1327
     34 C24        -6.6665    2.2832   -1.7848 C.ar      1 <0>         0.0789
     35 C25        -5.8719    1.4162   -2.5158 C.ar      1 <0>        -0.1329
     36 C26        -4.8278    0.7518   -1.9027 C.ar      1 <0>        -0.0939
     37 F1         -7.6872    2.9325   -2.3864 F         1 <0>        -0.1408
     38 H3          7.8173    7.3079   -4.8024 H         1 <0>         0.1208
     39 H4          6.6001    7.9385   -2.7569 H         1 <0>         0.1214
     40 H5          6.3711    6.3228   -0.9130 H         1 <0>         0.1211
     41 H6          8.5832    3.4486   -3.1568 H         1 <0>         0.1205
     42 H7          8.8051    5.0614   -5.0041 H         1 <0>         0.1213
     43 H8          7.2625    4.3316    0.1525 H         1 <0>         0.0757
     44 H9          8.1820    3.1306   -0.7858 H         1 <0>         0.0764
     45 H10         6.0581    2.5105   -1.9792 H         1 <0>         0.0757
     46 H11         5.9884    2.3484    1.0694 H         1 <0>         0.0781
     47 H12         6.8097    1.2075   -0.0235 H         1 <0>         0.0834
     48 H13         4.5914    0.3405    0.6887 H         1 <0>         0.1027
     49 H14         4.6402    0.6336   -1.0662 H         1 <0>         0.0652
     50 H15         3.5353    2.5676   -1.9913 H         1 <0>         0.0661
     51 H16         2.6752    3.6952   -0.9159 H         1 <0>         0.0861
     52 H17         4.8273    4.3812    0.0971 H         1 <0>         0.0803
     53 H18         4.8498    4.6386   -1.6647 H         1 <0>         0.0865
     54 H19         2.0881   -2.5255    0.1301 H         1 <0>         0.4213
     55 H20        -1.9646   -2.7523   -0.5836 H         1 <0>         0.1222
     56 H21        -1.0691   -1.8647   -1.8394 H         1 <0>         0.1205
     57 H22        -3.6013   -0.0060    0.9939 H         1 <0>         0.4105
     58 H23        -5.1851    1.9732    1.2318 H         1 <0>         0.1352
     59 H24        -7.0368    3.1629    0.1303 H         1 <0>         0.1387
     60 H25        -6.0686    1.2597   -3.5661 H         1 <0>         0.1380
     61 H26        -4.2078    0.0763   -2.4734 H         1 <0>         0.1413
@<TRIPOS>BOND
     1    1    6 ar
     2    1    2 ar
     3    1   38 1
     4    2    3 ar
     5    2   39 1
     6    3    4 ar
     7    3   40 1
     8    4    5 ar
     9    4    7 1
    10    5    6 ar
    11    5   41 1
    12    6   42 1
    13    7    8 1
    14    7   43 1
    15    7   44 1
    16    8   13 1
    17    8    9 1
    18    8   45 1
    19    9   10 1
    20    9   46 1
    21    9   47 1
    22   10   11 1
    23   10   48 1
    24   10   49 1
    25   11   12 1
    26   11   14 1
    27   12   13 1
    28   12   50 1
    29   12   51 1
    30   13   52 1
    31   13   53 1
    32   14   21 2
    33   14   15 1
    34   15   16 1
    35   15   17 am
    36   17   18 2
    37   17   19 1
    38   19   26 1
    39   19   20 2
    40   20   21 1
    41   20   22 1
    42   22   23 am
    43   22   54 1
    44   23   24 2
    45   23   25 1
    46   25   26 1
    47   25   55 1
    48   25   56 1
    49   26   27 1
    50   26   28 1
    51   28   29 2
    52   28   30 am
    53   30   31 1
    54   30   57 1
    55   31   36 ar
    56   31   32 ar
    57   32   33 ar
    58   32   58 1
    59   33   34 ar
    60   33   59 1
    61   34   35 ar
    62   34   37 1
    63   35   36 ar
    64   35   60 1
    65   36   61 1
@<TRIPOS>MOLECULE
ZINC16611200
   55    57     0     0     0
SMALL
USER_CHARGES
methyl (4S)-4-[3-[(4-cyanophenyl)carbamoylamino]phenyl]-1-ethyl-6-methyl-2-thioxo-3,4-dihydropyrimidine-5-carboxylate
@<TRIPOS>ATOM
      1 C1         -6.5976   15.6444   -0.9457 C.3       1 <0>        -0.1689
      2 C2         -7.0324   14.1777   -0.9687 C.3       1 <0>         0.0740
      3 N1         -5.9194   13.3314   -0.5314 N.pl3     1 <0>        -0.4918
      4 C3         -4.9895   12.9606   -1.4587 C.2       1 <0>         0.2417
      5 C4         -3.9403   12.1810   -1.1200 C.2       1 <0>        -0.2633
      6 C5         -3.8301   11.7335    0.3235 C.3       1 <0>         0.2201
      7 H1         -2.8725   12.0813    0.7110 H         1 <0>         0.1038
      8 N2         -4.8850   12.1888    1.2446 N.pl3     1 <0>        -0.6443
      9 C6         -5.8718   12.9658    0.7558 C.2       1 <0>         0.5491
     10 S1         -7.1049   13.5025    1.8152 S.2       1 <0>        -0.5881
     11 C7         -3.8148   10.2267    0.3430 C.ar      1 <0>        -0.0961
     12 C8         -5.0050    9.5232    0.3059 C.ar      1 <0>        -0.1126
     13 C9         -4.9952    8.1408    0.3231 C.ar      1 <0>        -0.0988
     14 C10        -3.7955    7.4577    0.3717 C.ar      1 <0>        -0.1338
     15 C11        -2.5991    8.1611    0.4149 C.ar      1 <0>         0.1575
     16 C12        -2.6124    9.5498    0.3974 C.ar      1 <0>        -0.0743
     17 N3         -1.3824    7.4721    0.4701 N.am      1 <0>        -0.6784
     18 C13        -0.3382    8.0010    1.1383 C.2       1 <0>         0.7047
     19 O1         -0.4794    9.0296    1.7710 O.2       1 <0>        -0.5467
     20 N4          0.8624    7.3896    1.1053 N.am      1 <0>        -0.6814
     21 C14         1.9142    7.8751    1.8831 C.ar      1 <0>         0.1947
     22 C15         1.6527    8.4500    3.1225 C.ar      1 <0>        -0.1229
     23 C16         2.6882    8.9294    3.8932 C.ar      1 <0>        -0.0464
     24 C17         4.0033    8.8382    3.4285 C.ar      1 <0>        -0.0461
     25 C18         4.2617    8.2651    2.1801 C.ar      1 <0>        -0.0465
     26 C19         3.2218    7.7826    1.4174 C.ar      1 <0>        -0.1480
     27 C20         5.0828    9.3360    4.2270 C.1       1 <0>         0.2522
     28 N5          5.9391    9.7310    4.8604 N.1       1 <0>        -0.4149
     29 C21        -2.9767   11.7956   -2.0806 C.2       1 <0>         0.5339
     30 O2         -3.0854   12.1668   -3.2343 O.2       1 <0>        -0.5102
     31 O3         -1.9365   11.0161   -1.7178 O.3       1 <0>        -0.3422
     32 C22        -1.0013   10.6654   -2.7397 C.3       1 <0>         0.0374
     33 C23        -5.1368   13.4276   -2.8839 C.3       1 <0>        -0.1296
     34 H2         -6.3070   15.9214    0.0677 H         1 <0>         0.0711
     35 H3         -5.7502   15.7828   -1.6173 H         1 <0>         0.0583
     36 H4         -7.4257   16.2741   -1.2711 H         1 <0>         0.0842
     37 H5         -7.3230   13.9008   -1.9821 H         1 <0>         0.0995
     38 H6         -7.8798   14.0394   -0.2972 H         1 <0>         0.1361
     39 H7         -4.8699   11.9357    2.1809 H         1 <0>         0.4478
     40 H8         -5.9441   10.0549    0.2630 H         1 <0>         0.1147
     41 H9         -5.9263    7.5943    0.2937 H         1 <0>         0.1294
     42 H10        -3.7883    6.3778    0.3804 H         1 <0>         0.1278
     43 H11        -1.6833   10.0997    0.4268 H         1 <0>         0.1469
     44 H12        -1.2904    6.6140    0.0274 H         1 <0>         0.4101
     45 H13         0.9954    6.6121    0.5408 H         1 <0>         0.4123
     46 H14         0.6363    8.5202    3.4809 H         1 <0>         0.1470
     47 H15         2.4845    9.3750    4.8556 H         1 <0>         0.1376
     48 H16         5.2762    8.1967    1.8161 H         1 <0>         0.1385
     49 H17         3.4211    7.3357    0.4547 H         1 <0>         0.1377
     50 H18        -1.5151   10.1187   -3.5304 H         1 <0>         0.0603
     51 H19        -0.5581   11.5713   -3.1532 H         1 <0>         0.0616
     52 H20        -0.2172   10.0385   -2.3150 H         1 <0>         0.0970
     53 H21        -5.9812   14.1131   -2.9562 H         1 <0>         0.0815
     54 H22        -4.2259   13.9392   -3.1946 H         1 <0>         0.1113
     55 H23        -5.3099   12.5683   -3.5318 H         1 <0>         0.1055
@<TRIPOS>BOND
     1    1    2 1
     2    1   34 1
     3    1   35 1
     4    1   36 1
     5    2    3 1
     6    2   37 1
     7    2   38 1
     8    3    9 1
     9    3    4 1
    10    4    5 2
    11    4   33 1
    12    5    6 1
    13    5   29 1
    14    6    7 1
    15    6    8 1
    16    6   11 1
    17    8    9 1
    18    8   39 1
    19    9   10 2
    20   11   16 ar
    21   11   12 ar
    22   12   13 ar
    23   12   40 1
    24   13   14 ar
    25   13   41 1
    26   14   15 ar
    27   14   42 1
    28   15   16 ar
    29   15   17 1
    30   16   43 1
    31   17   18 am
    32   17   44 1
    33   18   19 2
    34   18   20 am
    35   20   21 1
    36   20   45 1
    37   21   26 ar
    38   21   22 ar
    39   22   23 ar
    40   22   46 1
    41   23   24 ar
    42   23   47 1
    43   24   25 ar
    44   24   27 1
    45   25   26 ar
    46   25   48 1
    47   26   49 1
    48   27   28 3
    49   29   30 2
    50   29   31 1
    51   31   32 1
    52   32   50 1
    53   32   51 1
    54   32   52 1
    55   33   53 1
    56   33   54 1
    57   33   55 1
@<TRIPOS>MOLECULE
ZINC32902401
   50    53     0     0     0
SMALL
USER_CHARGES
(2,4-dimethylphenyl) 4-[(2-oxo-1,3-dihydrobenzimidazol-5-yl)sulfonylamino]benzoate
@<TRIPOS>ATOM
      1 C1         -3.0260    3.0395   -0.8429 C.3       1 <0>        -0.1199
      2 C2         -1.6577    2.4162   -0.7425 C.ar      1 <0>        -0.0736
      3 C3         -1.0347    2.3132    0.4878 C.ar      1 <0>        -0.1138
      4 C4          0.2217    1.7471    0.5818 C.ar      1 <0>        -0.1086
      5 C5          0.8541    1.2716   -0.5581 C.ar      1 <0>         0.0717
      6 C6          0.2248    1.3713   -1.7903 C.ar      1 <0>        -0.0754
      7 C7         -1.0295    1.9436   -1.8798 C.ar      1 <0>        -0.1110
      8 C8          0.9090    0.8564   -3.0304 C.3       1 <0>        -0.1187
      9 O1          2.0882    0.7095   -0.4676 O.3       1 <0>        -0.2863
     10 C9          2.1422   -0.6315   -0.3432 C.2       1 <0>         0.5056
     11 O2          1.1223   -1.2892   -0.4077 O.2       1 <0>        -0.4867
     12 C10         3.4379   -1.3001   -0.1291 C.ar      1 <0>        -0.1397
     13 C11         4.6133   -0.5451   -0.0605 C.ar      1 <0>        -0.0336
     14 C12         5.8165   -1.1699    0.1441 C.ar      1 <0>        -0.1719
     15 C13         5.8704   -2.5553    0.2723 C.ar      1 <0>         0.1918
     16 C14         4.7029   -3.3104    0.1988 C.ar      1 <0>        -0.1430
     17 C15         3.4957   -2.6915    0.0001 C.ar      1 <0>        -0.0319
     18 N1          7.0927   -3.1861    0.4738 N.pl3     1 <0>        -1.0704
     19 S1          8.4070   -2.7550   -0.4368 S.o2      1 <0>         2.6967
     20 O3          8.5112   -1.3402   -0.3551 O.2       1 <0>        -0.9430
     21 O4          9.4674   -3.6203   -0.0546 O.2       1 <0>        -0.9451
     22 C16         8.0260   -3.1359   -2.1144 C.ar      1 <0>        -0.6746
     23 C17         7.5150   -2.1535   -2.9453 C.ar      1 <0>        -0.0092
     24 C18         7.2137   -2.4423   -4.2618 C.ar      1 <0>        -0.1250
     25 C19         7.4239   -3.7217   -4.7533 C.ar      1 <0>         0.1403
     26 C20         7.9393   -4.7125   -3.9153 C.ar      1 <0>         0.0588
     27 C21         8.2437   -4.4117   -2.5963 C.ar      1 <0>         0.0005
     28 N2          8.0379   -5.8737   -4.6781 N.am      1 <0>        -0.6531
     29 H1          8.4237   -6.7986   -4.2245 H         1 <0>         0.4698
     30 C22         7.6027   -5.6018   -5.9228 C.2       1 <0>         0.7025
     31 O5          7.5577   -6.4006   -6.8397 O.2       1 <0>        -0.5471
     32 N3          7.2254   -4.3116   -5.9994 N.am      1 <0>        -0.6537
     33 H2          6.8207   -3.7166   -6.8314 H         1 <0>         0.4705
     34 H3         -3.3603    3.3532    0.1570 H         1 <0>         0.0686
     35 H4         -3.7345    2.3045   -1.2526 H         1 <0>         0.0733
     36 H5         -2.9820    3.9157   -1.5064 H         1 <0>         0.0737
     37 H6         -1.5292    2.6793    1.3754 H         1 <0>         0.1315
     38 H7          0.7096    1.6707    1.5423 H         1 <0>         0.1310
     39 H8         -1.5199    2.0215   -2.8389 H         1 <0>         0.1305
     40 H9          0.2599    1.0220   -3.9029 H         1 <0>         0.0722
     41 H10         1.1071   -0.2200   -2.9198 H         1 <0>         0.0684
     42 H11         1.8594    1.3913   -3.1737 H         1 <0>         0.0762
     43 H12         4.5726    0.5291   -0.1639 H         1 <0>         0.1472
     44 H13         6.7239   -0.5871    0.2020 H         1 <0>         0.1678
     45 H14         4.7482   -4.3849    0.2986 H         1 <0>         0.1406
     46 H15         2.5904   -3.2777   -0.0561 H         1 <0>         0.1430
     47 H16         7.1869   -3.9716    1.2381 H         1 <0>         0.4601
     48 H17         7.3510   -1.1571   -2.5623 H         1 <0>         0.1522
     49 H18         6.8156   -1.6732   -4.9071 H         1 <0>         0.1434
     50 H19         8.6466   -5.1743   -1.9464 H         1 <0>         0.1477
@<TRIPOS>BOND
     1    1    2 1
     2    1   34 1
     3    1   35 1
     4    1   36 1
     5    2    7 ar
     6    2    3 ar
     7    3    4 ar
     8    3   37 1
     9    4    5 ar
    10    4   38 1
    11    5    6 ar
    12    5    9 1
    13    6    7 ar
    14    6    8 1
    15    7   39 1
    16    8   40 1
    17    8   41 1
    18    8   42 1
    19    9   10 1
    20   10   11 2
    21   10   12 1
    22   12   17 ar
    23   12   13 ar
    24   13   14 ar
    25   13   43 1
    26   14   15 ar
    27   14   44 1
    28   15   16 ar
    29   15   18 1
    30   16   17 ar
    31   16   45 1
    32   17   46 1
    33   18   19 1
    34   18   47 1
    35   19   20 2
    36   19   21 2
    37   19   22 1
    38   22   27 ar
    39   22   23 ar
    40   23   24 ar
    41   23   48 1
    42   24   25 ar
    43   24   49 1
    44   25   32 1
    45   25   26 ar
    46   26   27 ar
    47   26   28 1
    48   27   50 1
    49   28   29 1
    50   28   30 am
    51   30   31 2
    52   30   32 am
    53   32   33 1
@<TRIPOS>MOLECULE
ZINC08568292
   57    61     0     0     0
SMALL
USER_CHARGES

@<TRIPOS>ATOM
      1 C1          0.5513    1.3910   -0.1045 C.3       1 <0>        -0.1482
      2 C2          0.4083   -0.1321   -0.0800 C.3       1 <0>        -0.1182
      3 C3         -1.0755   -0.5048   -0.0589 C.3       1 <0>        -0.0472
      4 C4         -1.2163   -2.0050   -0.0347 C.2       1 <0>         0.1320
      5 C5         -1.2987   -2.8335   -1.1454 C.2       1 <0>        -0.2537
      6 C6         -1.4184   -4.1234   -0.7034 C.2       1 <0>         0.2902
      7 N1         -1.4096   -4.0941    0.6385 N.pl3     1 <0>        -0.4413
      8 H1         -1.4789   -4.8621    1.2269 H         1 <0>         0.4491
      9 N2         -1.2767   -2.7555    1.0395 N.2       1 <0>        -0.2551
     10 O1         -1.5222   -5.1787   -1.5486 O.3       1 <0>        -0.2300
     11 C7         -1.7741   -4.9255   -2.8476 C.2       1 <0>         0.4453
     12 C8         -1.6772   -3.6926   -3.4061 C.2       1 <0>        -0.3441
     13 C9         -1.2708   -2.4851   -2.6068 C.3       1 <0>         0.1299
     14 C10         0.0761   -1.9863   -3.0212 C.ar      1 <0>        -0.1200
     15 C11         1.3182   -2.5834   -3.0044 C.ar      1 <0>        -0.0396
     16 C12         2.3887   -1.8263   -3.4678 C.ar      1 <0>        -0.1434
     17 C13         2.2124   -0.5355   -3.9229 C.ar      1 <0>        -0.0805
     18 C14         0.9665    0.0715   -3.9437 C.ar      1 <0>        -0.1404
     19 C15        -0.1169   -0.6779   -3.4821 C.ar      1 <0>         0.1561
     20 N3         -1.4527   -0.3282   -3.3922 N.am      1 <0>        -0.5470
     21 C16        -2.2054   -1.3298   -2.8898 C.2       1 <0>         0.5375
     22 O2         -3.4033   -1.3077   -2.7012 O.2       1 <0>        -0.4707
     23 C17        -1.9870    0.9751   -3.7948 C.3       1 <0>         0.1491
     24 C18        -2.3882    0.9269   -5.2466 C.ar      1 <0>        -0.1117
     25 C19        -1.4709    1.2526   -6.2281 C.ar      1 <0>        -0.0841
     26 C20        -1.8382    1.2085   -7.5598 C.ar      1 <0>        -0.1117
     27 C21        -3.1244    0.8383   -7.9105 C.ar      1 <0>        -0.0267
     28 C22        -4.0420    0.5124   -6.9277 C.ar      1 <0>        -0.1138
     29 C23        -3.6718    0.5514   -5.5966 C.ar      1 <0>        -0.0820
     30 Cl1        -3.5867    0.7833   -9.5829 Cl        1 <0>        -0.0673
     31 C24        -1.9638   -3.5398   -4.7703 C.2       1 <0>         0.5310
     32 O3         -1.0556   -3.4613   -5.5785 O.2       1 <0>        -0.4808
     33 O4         -3.2469   -3.4797   -5.1882 O.3       1 <0>        -0.3478
     34 C25        -3.4653   -3.3234   -6.5918 C.3       1 <0>         0.0306
     35 N4         -2.1485   -5.9707   -3.6491 N.pl3     1 <0>        -0.8266
     36 H2          1.6083    1.6566   -0.1196 H         1 <0>         0.0589
     37 H3          0.0643    1.7874   -0.9955 H         1 <0>         0.0528
     38 H4          0.0830    1.8143    0.7841 H         1 <0>         0.0555
     39 H5          0.8766   -0.5553   -0.9687 H         1 <0>         0.0713
     40 H6          0.8952   -0.5284    0.8110 H         1 <0>         0.0670
     41 H7         -1.5437   -0.0815    0.8298 H         1 <0>         0.0871
     42 H8         -1.5624   -0.1084   -0.9499 H         1 <0>         0.0790
     43 H9          1.4541   -3.5935   -2.6471 H         1 <0>         0.1268
     44 H10         3.3789   -2.2575   -3.4713 H         1 <0>         0.1241
     45 H11         3.0709    0.0184   -4.2729 H         1 <0>         0.1258
     46 H12         0.8392    1.0824   -4.3019 H         1 <0>         0.1305
     47 H13        -2.8581    1.2148   -3.1849 H         1 <0>         0.1027
     48 H14        -1.2234    1.7401   -3.6541 H         1 <0>         0.1004
     49 H15        -0.4670    1.5420   -5.9543 H         1 <0>         0.1321
     50 H16        -1.1216    1.4634   -8.3265 H         1 <0>         0.1355
     51 H17        -5.0462    0.2236   -7.2008 H         1 <0>         0.1348
     52 H18        -4.3867    0.2924   -4.8296 H         1 <0>         0.1359
     53 H19        -4.5364   -3.2896   -6.7912 H         1 <0>         0.1015
     54 H20        -3.0033   -2.3960   -6.9303 H         1 <0>         0.0592
     55 H21        -3.0230   -4.1653   -7.1243 H         1 <0>         0.0597
     56 H22        -2.1459   -6.8754   -3.2992 H         1 <0>         0.4138
     57 H23        -2.4162   -5.8065   -4.5668 H         1 <0>         0.4268
@<TRIPOS>BOND
     1    1    2 1
     2    1   36 1
     3    1   37 1
     4    1   38 1
     5    2    3 1
     6    2   39 1
     7    2   40 1
     8    3    4 1
     9    3   41 1
    10    3   42 1
    11    4    9 2
    12    4    5 1
    13    5   13 1
    14    5    6 2
    15    6    7 1
    16    6   10 1
    17    7    8 1
    18    7    9 1
    19   10   11 1
    20   11   12 2
    21   11   35 1
    22   12   13 1
    23   12   31 1
    24   13   21 1
    25   13   14 1
    26   14   19 ar
    27   14   15 ar
    28   15   16 ar
    29   15   43 1
    30   16   17 ar
    31   16   44 1
    32   17   18 ar
    33   17   45 1
    34   18   19 ar
    35   18   46 1
    36   19   20 1
    37   20   21 am
    38   20   23 1
    39   21   22 2
    40   23   24 1
    41   23   47 1
    42   23   48 1
    43   24   29 ar
    44   24   25 ar
    45   25   26 ar
    46   25   49 1
    47   26   27 ar
    48   26   50 1
    49   27   28 ar
    50   27   30 1
    51   28   29 ar
    52   28   51 1
    53   29   52 1
    54   31   32 2
    55   31   33 1
    56   33   34 1
    57   34   53 1
    58   34   54 1
    59   34   55 1
    60   35   56 1
    61   35   57 1
@<TRIPOS>MOLECULE
ZINC08899739
   61    64     0     0     0
SMALL
USER_CHARGES
2-(4-benzyl-2,5-dioxo-4-phenyl-imidazolidin-1-yl)-N-[(2,4-dimethylphenyl)carbamoyl]acetamide
@<TRIPOS>ATOM
      1 C1         -8.3919   -1.0499   -0.3924 C.3       1 <0>        -0.1138
      2 C2         -7.0989   -0.2839   -0.2802 C.ar      1 <0>        -0.0989
      3 C3         -5.9301   -0.8255   -0.7835 C.ar      1 <0>        -0.1032
      4 C4         -4.7448   -0.1234   -0.6878 C.ar      1 <0>        -0.1209
      5 C5         -4.7252    1.1229   -0.0751 C.ar      1 <0>         0.1543
      6 C6         -5.9004    1.6639    0.4292 C.ar      1 <0>        -0.1123
      7 C7         -7.0838    0.9590    0.3252 C.ar      1 <0>        -0.1004
      8 C8         -5.8847    3.0183    1.0897 C.3       1 <0>        -0.1149
      9 N1         -3.5247    1.8344    0.0287 N.am      1 <0>        -0.6736
     10 C9         -2.3484    1.1767    0.0158 C.2       1 <0>         0.6957
     11 O1         -2.3315   -0.0385    0.0171 O.2       1 <0>        -0.5031
     12 N2         -1.1907    1.8667    0.0014 N.am      1 <0>        -0.6869
     13 C10        -0.0144    1.2091   -0.0115 C.2       1 <0>         0.4958
     14 O2          0.0025   -0.0031   -0.0102 O.2       1 <0>        -0.4252
     15 C11         1.2800    1.9806   -0.0339 C.3       1 <0>         0.1030
     16 N3          2.4064    1.0441   -0.0512 N.am      1 <0>        -0.5605
     17 C12         3.0104    0.5658    1.0545 C.2       1 <0>         0.5478
     18 O3          2.7345    0.8195    2.2074 O.2       1 <0>        -0.4535
     19 C13         4.1051   -0.3570    0.5568 C.3       1 <0>         0.1789
     20 N4          3.9842   -0.2785   -0.9092 N.am      1 <0>        -0.7088
     21 C14         2.9664    0.5626   -1.1669 C.2       1 <0>         0.7145
     22 O4          2.5969    0.8527   -2.2878 O.2       1 <0>        -0.5357
     23 C15         3.8689   -1.7892    1.0405 C.3       1 <0>        -0.0713
     24 C16         2.5430   -2.2825    0.5212 C.ar      1 <0>        -0.1068
     25 C17         1.3947   -2.0930    1.2672 C.ar      1 <0>        -0.1000
     26 C18         0.1778   -2.5417    0.7888 C.ar      1 <0>        -0.0693
     27 C19         0.1106   -3.1878   -0.4314 C.ar      1 <0>        -0.1041
     28 C20         1.2596   -3.3820   -1.1749 C.ar      1 <0>        -0.1195
     29 C21         2.4758   -2.9295   -0.6986 C.ar      1 <0>        -0.1091
     30 C22         5.4571    0.1359    1.0044 C.ar      1 <0>        -0.1015
     31 C23         6.0278   -0.3653    2.1595 C.ar      1 <0>        -0.0919
     32 C24         7.2698    0.0837    2.5677 C.ar      1 <0>        -0.1162
     33 C25         7.9371    1.0404    1.8258 C.ar      1 <0>        -0.1057
     34 C26         7.3641    1.5453    0.6736 C.ar      1 <0>        -0.1174
     35 C27         6.1239    1.0932    0.2631 C.ar      1 <0>        -0.0990
     36 H1         -8.8882   -0.7900   -1.3274 H         1 <0>         0.0699
     37 H2         -8.1829   -2.1196   -0.3770 H         1 <0>         0.0662
     38 H3         -9.0396   -0.7941    0.4461 H         1 <0>         0.0656
     39 H4         -5.9452   -1.7966   -1.2559 H         1 <0>         0.1249
     40 H5         -3.8333   -0.5447   -1.0853 H         1 <0>         0.1465
     41 H6         -7.9982    1.3794    0.7170 H         1 <0>         0.1261
     42 H7         -6.0657    3.7897    0.3412 H         1 <0>         0.0718
     43 H8         -6.6639    3.0605    1.8507 H         1 <0>         0.0730
     44 H9         -4.9131    3.1844    1.5550 H         1 <0>         0.0611
     45 H10        -3.5392    2.8009    0.1100 H         1 <0>         0.4083
     46 H11        -1.2042    2.8367    0.0003 H         1 <0>         0.4109
     47 H12         1.3143    2.6068   -0.9254 H         1 <0>         0.1343
     48 H13         1.3437    2.6092    0.8543 H         1 <0>         0.1314
     49 H14         4.5314   -0.7432   -1.5616 H         1 <0>         0.4418
     50 H15         4.6664   -2.4338    0.6709 H         1 <0>         0.0978
     51 H16         3.8620   -1.8082    2.1303 H         1 <0>         0.0982
     52 H17         1.4478   -1.5915    2.2222 H         1 <0>         0.1107
     53 H18        -0.7199   -2.3897    1.3696 H         1 <0>         0.1146
     54 H19        -0.8398   -3.5407   -0.8039 H         1 <0>         0.1142
     55 H20         1.2071   -3.8868   -2.1282 H         1 <0>         0.1157
     56 H21         3.3736   -3.0812   -1.2795 H         1 <0>         0.1136
     57 H22         5.5047   -1.1100    2.7411 H         1 <0>         0.1312
     58 H23         7.7177   -0.3111    3.4677 H         1 <0>         0.1294
     59 H24         8.9063    1.3930    2.1462 H         1 <0>         0.1268
     60 H25         7.8854    2.2927    0.0940 H         1 <0>         0.1272
     61 H26         5.6762    1.4877   -0.6371 H         1 <0>         0.1221
@<TRIPOS>BOND
     1    1    2 1
     2    1   36 1
     3    1   37 1
     4    1   38 1
     5    2    7 ar
     6    2    3 ar
     7    3    4 ar
     8    3   39 1
     9    4    5 ar
    10    4   40 1
    11    5    6 ar
    12    5    9 1
    13    6    7 ar
    14    6    8 1
    15    7   41 1
    16    8   42 1
    17    8   43 1
    18    8   44 1
    19    9   10 am
    20    9   45 1
    21   10   11 2
    22   10   12 am
    23   12   13 am
    24   12   46 1
    25   13   14 2
    26   13   15 1
    27   15   16 1
    28   15   47 1
    29   15   48 1
    30   16   21 am
    31   16   17 am
    32   17   18 2
    33   17   19 1
    34   19   20 1
    35   19   23 1
    36   19   30 1
    37   20   21 am
    38   20   49 1
    39   21   22 2
    40   23   24 1
    41   23   50 1
    42   23   51 1
    43   24   29 ar
    44   24   25 ar
    45   25   26 ar
    46   25   52 1
    47   26   27 ar
    48   26   53 1
    49   27   28 ar
    50   27   54 1
    51   28   29 ar
    52   28   55 1
    53   29   56 1
    54   30   35 ar
    55   30   31 ar
    56   31   32 ar
    57   31   57 1
    58   32   33 ar
    59   32   58 1
    60   33   34 ar
    61   33   59 1
    62   34   35 ar
    63   34   60 1
    64   35   61 1
@<TRIPOS>MOLECULE
ZINC02290759
   62    67     0     0     0
SMALL
USER_CHARGES
2-amino-N-(1,3-benzodioxol-5-ylmethyl)-1-[2-(1-cyclohexenyl)ethyl]pyrrolo[4,5-b]quinoxaline-3-carboxamide
@<TRIPOS>ATOM
      1 C1          6.8637   -1.5876   -1.6131 C.ar      1 <0>        -0.1034
      2 C2          6.6126   -1.1556   -0.3117 C.ar      1 <0>        -0.1026
      3 C3          5.3527   -0.8343    0.0883 C.ar      1 <0>        -0.0850
      4 C4          4.2822   -0.9361   -0.8195 C.ar      1 <0>         0.0964
      5 C5          4.5379   -1.3749   -2.1428 C.ar      1 <0>         0.0890
      6 C6          5.8551   -1.6987   -2.5190 C.ar      1 <0>        -0.0824
      7 N1          3.5380   -1.4801   -3.0260 N.ar      1 <0>        -0.4198
      8 C7          2.3102   -1.1733   -2.6571 C.ar      1 <0>         0.1734
      9 C8          1.0022   -1.1678   -3.3320 C.2       1 <0>        -0.3206
     10 C9          0.0737   -0.7416   -2.3884 C.2       1 <0>         0.4785
     11 N2          0.6878   -0.4765   -1.2033 N.pl3     1 <0>        -0.4856
     12 C10         2.0434   -0.7190   -1.2898 C.ar      1 <0>         0.2893
     13 N3          3.0391   -0.6211   -0.4347 N.ar      1 <0>        -0.4404
     14 C11         0.0021   -0.0041    0.0020 C.3       1 <0>         0.1122
     15 C12        -0.0187    1.5258    0.0104 C.3       1 <0>        -0.1018
     16 C13        -0.7240    2.0118    1.2503 C.2       1 <0>        -0.1309
     17 C14        -0.0014    2.3122    2.2814 C.2       1 <0>        -0.1364
     18 C15        -0.5598    2.7989    3.5865 C.3       1 <0>        -0.0930
     19 C16        -1.9979    3.2858    3.3957 C.3       1 <0>        -0.1225
     20 C17        -2.7785    2.2067    2.6347 C.3       1 <0>        -0.1207
     21 C18        -2.2201    2.1231    1.2108 C.3       1 <0>        -0.0812
     22 N4         -1.2700   -0.6041   -2.6205 N.pl3     1 <0>        -0.8287
     23 C19         0.7316   -1.5420   -4.7183 C.2       1 <0>         0.6126
     24 O1          0.4600   -2.6962   -4.9955 O.2       1 <0>        -0.5299
     25 N5          0.7827   -0.6097   -5.6903 N.am      1 <0>        -0.7194
     26 C20         0.5114   -0.9850   -7.0802 C.3       1 <0>         0.1650
     27 C21         0.6325    0.2313   -7.9617 C.ar      1 <0>        -0.0999
     28 C22        -0.4769    1.0193   -8.2059 C.ar      1 <0>        -0.0888
     29 C23        -0.3696    2.1392   -9.0093 C.ar      1 <0>        -0.1024
     30 C24         0.8485    2.4678   -9.5817 C.ar      1 <0>         0.0401
     31 C25         1.9649    1.6710   -9.3399 C.ar      1 <0>         0.0311
     32 C26         1.8513    0.5535   -8.5288 C.ar      1 <0>        -0.0800
     33 O2          3.0311    2.1994  -10.0086 O.3       1 <0>        -0.3069
     34 C27         2.4669    3.0915  -10.9879 C.3       1 <0>         0.2126
     35 O3          1.2154    3.4955  -10.4017 O.3       1 <0>        -0.3082
     36 H1          7.8728   -1.8371   -1.9061 H         1 <0>         0.1344
     37 H2          7.4302   -1.0752    0.3893 H         1 <0>         0.1341
     38 H3          5.1745   -0.5012    1.1000 H         1 <0>         0.1362
     39 H4          6.0645   -2.0340   -3.5240 H         1 <0>         0.1381
     40 H5          0.5293   -0.3651    0.8851 H         1 <0>         0.1036
     41 H6         -1.0205   -0.3814    0.0098 H         1 <0>         0.0907
     42 H7          1.0039    1.9031    0.0027 H         1 <0>         0.0786
     43 H8         -0.5459    1.8868   -0.8726 H         1 <0>         0.0743
     44 H9          1.0701    2.2063    2.1970 H         1 <0>         0.1054
     45 H10        -0.5472    1.9846    4.3110 H         1 <0>         0.0757
     46 H11         0.0519    3.6215    3.9569 H         1 <0>         0.0730
     47 H12        -2.4597    3.4547    4.3685 H         1 <0>         0.0659
     48 H13        -1.9977    4.2139    2.8241 H         1 <0>         0.0644
     49 H14        -2.6591    1.2461    3.1359 H         1 <0>         0.0651
     50 H15        -3.8348    2.4736    2.6012 H         1 <0>         0.0666
     51 H16        -2.5012    3.0181    0.6558 H         1 <0>         0.0742
     52 H17        -2.6346    1.2465    0.7129 H         1 <0>         0.0675
     53 H18        -1.8559   -0.2977   -1.9108 H         1 <0>         0.4086
     54 H19        -1.6351   -0.8132   -3.4945 H         1 <0>         0.4271
     55 H20         0.9991    0.3097   -5.4695 H         1 <0>         0.4029
     56 H21         1.2310   -1.7386   -7.4001 H         1 <0>         0.0813
     57 H22        -0.4975   -1.3902   -7.1568 H         1 <0>         0.0832
     58 H23        -1.4284    0.7619   -7.7647 H         1 <0>         0.1410
     59 H24        -1.2370    2.7553   -9.1951 H         1 <0>         0.1385
     60 H25         2.7153   -0.0664   -8.3399 H         1 <0>         0.1390
     61 H26         2.2979    2.5691  -11.9296 H         1 <0>         0.0868
     62 H27         3.1145    3.9549  -11.1410 H         1 <0>         0.1340
@<TRIPOS>BOND
     1    1    6 ar
     2    1    2 ar
     3    1   36 1
     4    2    3 ar
     5    2   37 1
     6    3    4 ar
     7    3   38 1
     8    4   13 ar
     9    4    5 ar
    10    5    6 ar
    11    5    7 ar
    12    6   39 1
    13    7    8 ar
    14    8   12 ar
    15    8    9 1
    16    9   10 2
    17    9   23 1
    18   10   11 1
    19   10   22 1
    20   11   12 1
    21   11   14 1
    22   12   13 ar
    23   14   15 1
    24   14   40 1
    25   14   41 1
    26   15   16 1
    27   15   42 1
    28   15   43 1
    29   16   21 1
    30   16   17 2
    31   17   18 1
    32   17   44 1
    33   18   19 1
    34   18   45 1
    35   18   46 1
    36   19   20 1
    37   19   47 1
    38   19   48 1
    39   20   21 1
    40   20   49 1
    41   20   50 1
    42   21   51 1
    43   21   52 1
    44   22   53 1
    45   22   54 1
    46   23   24 2
    47   23   25 am
    48   25   26 1
    49   25   55 1
    50   26   27 1
    51   26   56 1
    52   26   57 1
    53   27   32 ar
    54   27   28 ar
    55   28   29 ar
    56   28   58 1
    57   29   30 ar
    58   29   59 1
    59   30   35 1
    60   30   31 ar
    61   31   32 ar
    62   31   33 1
    63   32   60 1
    64   33   34 1
    65   34   35 1
    66   34   61 1
    67   34   62 1
@<TRIPOS>MOLECULE
ZINC09490007
   48    52     0     0     0
SMALL
USER_CHARGES

@<TRIPOS>ATOM
      1 C1         -0.0251    0.0070   -1.8470 C.2       1 <0>        -0.2283
      2 C2          1.3080    0.1528   -2.2595 C.2       1 <0>        -0.0964
      3 C3          2.0892   -0.1961   -1.1940 C.2       1 <0>        -0.0711
      4 O1          1.2749   -0.5401   -0.1746 O.3       1 <0>        -0.1498
      5 C4         -0.0006   -0.4190   -0.5644 C.2       1 <0>         0.0157
      6 C5          3.5535   -0.1970   -1.1639 C.2       1 <0>         0.5521
      7 O2          4.1823    0.1347   -2.1509 O.2       1 <0>        -0.4665
      8 O3          4.2049   -0.5656   -0.0415 O.3       1 <0>        -0.2848
      9 C6          5.5605   -0.6499   -0.0891 C.ar      1 <0>         0.0897
     10 C7          6.3304    0.5036   -0.0478 C.ar      1 <0>        -0.1095
     11 C8          7.7081    0.4152   -0.0963 C.ar      1 <0>        -0.0846
     12 C9          8.3199   -0.8215   -0.1864 C.ar      1 <0>        -0.0880
     13 C10         7.5550   -1.9726   -0.2277 C.ar      1 <0>        -0.0959
     14 C11         6.1771   -1.8899   -0.1732 C.ar      1 <0>        -0.1022
     15 C12         9.8231   -0.9150   -0.2402 C.3       1 <0>         0.0637
     16 H1         10.2523    0.0861   -0.1970 H         1 <0>         0.1158
     17 C13        10.3283   -1.7412    0.9487 C.3       1 <0>        -0.1417
     18 H2         11.3781   -1.5445    1.1663 H         1 <0>         0.1626
     19 C14         9.4481   -1.5344    2.1599 C.2       1 <0>         0.1703
     20 N1          8.9058   -2.6944    2.4159 N.2       1 <0>        -0.2638
     21 N2          9.2848   -3.6703    1.4941 N.2       1 <0>        -0.2655
     22 C15        10.0781   -3.2005    0.5788 C.2       1 <0>         0.2647
     23 O4         10.5849   -3.7326   -0.5545 O.3       1 <0>        -0.1967
     24 C16        10.5746   -2.8913   -1.6203 C.2       1 <0>         0.4353
     25 C17        10.2401   -1.5867   -1.5208 C.2       1 <0>        -0.2710
     26 C18        10.2843   -0.7899   -2.7099 C.1       1 <0>         0.2653
     27 N3         10.3193   -0.1578   -3.6532 N.1       1 <0>        -0.4270
     28 N4         10.9194   -3.3880   -2.8529 N.pl3     1 <0>        -0.8207
     29 C19         9.2440   -0.2795    2.9013 C.ar      1 <0>        -0.0282
     30 C20         9.8972    0.8892    2.4976 C.ar      1 <0>        -0.0791
     31 C21         9.7013    2.0610    3.1970 C.ar      1 <0>        -0.0932
     32 C22         8.8604    2.0824    4.2973 C.ar      1 <0>        -0.0672
     33 C23         8.2102    0.9288    4.7029 C.ar      1 <0>        -0.0925
     34 C24         8.3916   -0.2489    4.0095 C.ar      1 <0>        -0.0605
     35 Br1         8.5993    3.6945    5.2507 Br        1 <0>        -0.0386
     36 H3         -0.9055    0.2029   -2.4411 H         1 <0>         0.1644
     37 H4          1.6504    0.4778   -3.2309 H         1 <0>         0.1665
     38 H5         -0.8671   -0.6270    0.0458 H         1 <0>         0.2178
     39 H6          5.8530    1.4698    0.0219 H         1 <0>         0.1324
     40 H7          8.3078    1.3128   -0.0642 H         1 <0>         0.1340
     41 H8          8.0352   -2.9373   -0.2981 H         1 <0>         0.1223
     42 H9          5.5802   -2.7895   -0.2010 H         1 <0>         0.1341
     43 H10        11.1635   -4.3219   -2.9484 H         1 <0>         0.4166
     44 H11        10.9189   -2.8050   -3.6281 H         1 <0>         0.4301
     45 H12        10.5538    0.8738    1.6402 H         1 <0>         0.1388
     46 H13        10.2051    2.9644    2.8864 H         1 <0>         0.1425
     47 H14         7.5562    0.9528    5.5621 H         1 <0>         0.1421
     48 H15         7.8804   -1.1467    4.3242 H         1 <0>         0.1459
@<TRIPOS>BOND
     1    1    5 2
     2    1    2 1
     3    1   36 1
     4    2    3 2
     5    2   37 1
     6    3    4 1
     7    3    6 1
     8    4    5 1
     9    5   38 1
    10    6    7 2
    11    6    8 1
    12    8    9 1
    13    9   14 ar
    14    9   10 ar
    15   10   11 ar
    16   10   39 1
    17   11   12 ar
    18   11   40 1
    19   12   13 ar
    20   12   15 1
    21   13   14 ar
    22   13   41 1
    23   14   42 1
    24   15   16 1
    25   15   25 1
    26   15   17 1
    27   17   18 1
    28   17   22 1
    29   17   19 1
    30   19   20 2
    31   19   29 1
    32   20   21 1
    33   21   22 2
    34   22   23 1
    35   23   24 1
    36   24   25 2
    37   24   28 1
    38   25   26 1
    39   26   27 3
    40   28   43 1
    41   28   44 1
    42   29   34 ar
    43   29   30 ar
    44   30   31 ar
    45   30   45 1
    46   31   32 ar
    47   31   46 1
    48   32   33 ar
    49   32   35 1
    50   33   34 ar
    51   33   47 1
    52   34   48 1
@<TRIPOS>MOLECULE
ZINC36235565
   50    53     0     0     0
SMALL
USER_CHARGES

@<TRIPOS>ATOM
      1 C1         -0.0677    1.3889   -0.0545 C.ar      1 <0>        -0.0989
      2 C2          1.1105    2.1128   -0.0708 C.ar      1 <0>        -0.0966
      3 C3          2.3324    1.4630   -0.0840 C.ar      1 <0>        -0.0692
      4 C4          2.3785    0.0721   -0.0808 C.ar      1 <0>        -0.1149
      5 C5          1.1805   -0.6642   -0.0642 C.ar      1 <0>        -0.1221
      6 C6         -0.0403    0.0056   -0.0511 C.ar      1 <0>        -0.0667
      7 C7          1.2209   -2.1408   -0.0619 C.2       1 <0>         0.4319
      8 O1          0.1866   -2.7780   -0.0478 O.2       1 <0>        -0.4162
      9 C8          2.5244   -2.8427   -0.0771 C.ar      1 <0>        -0.0348
     10 C9          2.5674   -4.2341   -0.0756 C.ar      1 <0>        -0.1359
     11 C10         3.7811   -4.8963   -0.0902 C.ar      1 <0>         0.0112
     12 C11         4.9764   -4.1790   -0.1066 C.ar      1 <0>        -0.1880
     13 C12         4.9517   -2.7721   -0.1084 C.ar      1 <0>         0.3251
     14 C13         3.7201   -2.1026   -0.0936 C.ar      1 <0>        -0.2125
     15 C14         3.6789   -0.6306   -0.0953 C.2       1 <0>         0.4450
     16 O2          4.7141    0.0066   -0.1098 O.2       1 <0>        -0.4429
     17 N1          6.1311   -2.0566   -0.1241 N.pl3     1 <0>        -0.8363
     18 C15         6.2664   -4.8945   -0.1217 C.2       1 <0>         0.5238
     19 O3          7.3048   -4.2727   -0.2269 O.2       1 <0>        -0.5047
     20 O4          6.2929   -6.2378   -0.0186 O.3       1 <0>        -0.3216
     21 C16         7.5768   -6.8648   -0.0402 C.3       1 <0>         0.0517
     22 C17         7.4092   -8.3572    0.0851 C.2       1 <0>         0.5171
     23 O5          6.2994   -8.8367    0.1832 O.2       1 <0>        -0.4926
     24 N2          8.4924   -9.1591    0.0881 N.am      1 <0>        -0.6592
     25 C18         8.3335  -10.5513    0.0875 C.ar      1 <0>         0.1371
     26 C19         7.1735  -11.1187   -0.4194 C.ar      1 <0>        -0.1001
     27 C20         7.0193  -12.4920   -0.4193 C.ar      1 <0>        -0.1182
     28 C21         8.0187  -13.3034    0.0856 C.ar      1 <0>        -0.0969
     29 C22         9.1774  -12.7452    0.5924 C.ar      1 <0>        -0.1690
     30 C23         9.3423  -11.3695    0.5907 C.ar      1 <0>         0.0759
     31 O6         10.4838  -10.8193    1.0838 O.3       1 <0>        -0.3260
     32 C24        11.4749  -11.7196    1.5831 C.3       1 <0>         0.4149
     33 F1         10.9358  -12.4709    2.6329 F         1 <0>        -0.1960
     34 F2         11.8841  -12.5783    0.5573 F         1 <0>        -0.1965
     35 H1         -1.0154    1.9067   -0.0399 H         1 <0>         0.1394
     36 H2          1.0769    3.1923   -0.0737 H         1 <0>         0.1390
     37 H3          3.2487    2.0345   -0.0970 H         1 <0>         0.1442
     38 H4         -0.9641   -0.5538   -0.0380 H         1 <0>         0.1449
     39 H5          1.6474   -4.7996   -0.0626 H         1 <0>         0.1521
     40 H6          3.8032   -5.9760   -0.0886 H         1 <0>         0.1565
     41 H7          6.8968   -2.3944   -0.6146 H         1 <0>         0.4151
     42 H8          6.1947   -1.2158    0.3553 H         1 <0>         0.4132
     43 H9          8.0786   -6.6331   -0.9797 H         1 <0>         0.1081
     44 H10         8.1757   -6.4953    0.7923 H         1 <0>         0.1067
     45 H11         9.3821   -8.7725    0.0907 H         1 <0>         0.4178
     46 H12         6.3911  -10.4873   -0.8137 H         1 <0>         0.1564
     47 H13         6.1158  -12.9326   -0.8143 H         1 <0>         0.1340
     48 H14         7.8935  -14.3762    0.0842 H         1 <0>         0.1324
     49 H15         9.9559  -13.3818    0.9863 H         1 <0>         0.1382
     50 H16        12.3320  -11.1519    1.9453 H         1 <0>         0.1840
@<TRIPOS>BOND
     1    1    6 ar
     2    1    2 ar
     3    1   35 1
     4    2    3 ar
     5    2   36 1
     6    3    4 ar
     7    3   37 1
     8    4   15 1
     9    4    5 ar
    10    5    6 ar
    11    5    7 1
    12    6   38 1
    13    7    8 2
    14    7    9 1
    15    9   14 ar
    16    9   10 ar
    17   10   11 ar
    18   10   39 1
    19   11   12 ar
    20   11   40 1
    21   12   13 ar
    22   12   18 1
    23   13   14 ar
    24   13   17 1
    25   14   15 1
    26   15   16 2
    27   17   41 1
    28   17   42 1
    29   18   19 2
    30   18   20 1
    31   20   21 1
    32   21   22 1
    33   21   43 1
    34   21   44 1
    35   22   23 2
    36   22   24 am
    37   24   25 1
    38   24   45 1
    39   25   30 ar
    40   25   26 ar
    41   26   27 ar
    42   26   46 1
    43   27   28 ar
    44   27   47 1
    45   28   29 ar
    46   28   48 1
    47   29   30 ar
    48   29   49 1
    49   30   31 1
    50   31   32 1
    51   32   33 1
    52   32   34 1
    53   32   50 1
@<TRIPOS>MOLECULE
ZINC41333929
   55    59     0     0     0
SMALL
USER_CHARGES

@<TRIPOS>ATOM
      1 C1          0.1386    1.3770   -0.8125 C.ar      1 <0>        -0.0969
      2 C2          1.1474    2.1186   -0.2762 C.ar      1 <0>        -0.1069
      3 C3          2.2278    1.4798    0.3532 C.ar      1 <0>        -0.0861
      4 C4          3.2858    2.2178    0.9178 C.ar      1 <0>        -0.0555
      5 C5          4.3042    1.5309    1.5147 C.ar      1 <0>        -0.1708
      6 C6          4.2754    0.1385    1.5517 C.ar      1 <0>         0.1356
      7 N1          3.2887   -0.5449    1.0244 N.ar      1 <0>        -0.4788
      8 C7          2.2624    0.0659    0.4266 C.ar      1 <0>         0.1138
      9 C8          1.2023   -0.6762   -0.1388 C.ar      1 <0>         0.1675
     10 C9          0.1591   -0.0128   -0.7478 C.ar      1 <0>        -0.1019
     11 N2          1.2108   -2.0703   -0.0811 N.pl3     1 <0>        -0.6254
     12 C10         0.0189   -2.7660    0.0583 C.ar      1 <0>         0.5465
     13 C11         0.0223   -4.1518    0.1886 C.ar      1 <0>        -0.3161
     14 C12        -1.1977   -4.8071    0.3264 C.ar      1 <0>         0.5575
     15 N3         -2.3205   -4.0920    0.3291 N.ar      1 <0>        -0.6299
     16 C13        -2.2857   -2.7741    0.2028 C.ar      1 <0>         0.6581
     17 N4         -1.1431   -2.1167    0.0747 N.ar      1 <0>        -0.6230
     18 N5         -3.4740   -2.0649    0.2101 N.pl3     1 <0>        -0.5660
     19 C14        -3.4827   -0.6174   -0.0439 C.3       1 <0>         0.1054
     20 C15        -4.4391   -0.3299   -1.2079 C.3       1 <0>         0.1062
     21 N6         -5.7150   -1.0108   -0.9465 N.pl3     1 <0>        -0.6276
     22 C16        -5.7063   -2.4583   -0.6924 C.3       1 <0>         0.1060
     23 C17        -4.7505   -2.7468    0.4660 C.3       1 <0>         0.1087
     24 C18        -6.9143   -0.2949   -0.9391 C.ar      1 <0>         0.2314
     25 C19        -6.8994    1.0896   -1.0543 C.ar      1 <0>        -0.1952
     26 C20        -8.0866    1.7949   -1.0472 C.ar      1 <0>        -0.0564
     27 C21        -9.2902    1.1250   -0.9252 C.ar      1 <0>        -0.1693
     28 C22        -9.3093   -0.2539   -0.8102 C.ar      1 <0>         0.0162
     29 C23        -8.1245   -0.9661   -0.8224 C.ar      1 <0>        -0.1933
     30 Cl1       -10.8226   -1.0906   -0.6567 Cl        1 <0>        -0.0695
     31 N7         -1.2431   -6.1863    0.4586 N.pl3     1 <0>        -0.8197
     32 N8          1.2933   -4.9106    0.1803 N.pl3     1 <0>         0.0406
     33 O1          1.8777   -5.1224    1.2173 O.2       1 <0>        -0.1363
     34 O2          1.7471   -5.3184   -0.8635 O.3       1 <0>        -0.1441
     35 H1         -0.6916    1.8752   -1.2910 H         1 <0>         0.1336
     36 H2          1.1164    3.1965   -0.3353 H         1 <0>         0.1335
     37 H3          3.2919    3.2971    0.8797 H         1 <0>         0.1429
     38 H4          5.1311    2.0665    1.9571 H         1 <0>         0.1411
     39 H5          5.0874   -0.3919    2.0269 H         1 <0>         0.1626
     40 H6         -0.6528   -0.5788   -1.1802 H         1 <0>         0.1510
     41 H7          2.0502   -2.5530   -0.1384 H         1 <0>         0.4280
     42 H8         -3.8233   -0.0915    0.8479 H         1 <0>         0.0779
     43 H9         -2.4778   -0.2859   -0.3057 H         1 <0>         0.1123
     44 H10        -4.6071    0.7442   -1.2865 H         1 <0>         0.1008
     45 H11        -4.0082   -0.7042   -2.1365 H         1 <0>         0.0709
     46 H12        -6.7111   -2.7898   -0.4307 H         1 <0>         0.0992
     47 H13        -5.3656   -2.9842   -1.5843 H         1 <0>         0.0712
     48 H14        -4.5827   -3.8212    0.5409 H         1 <0>         0.1133
     49 H15        -5.1835   -2.3760    1.3950 H         1 <0>         0.0768
     50 H16        -5.9599    1.6139   -1.1489 H         1 <0>         0.1290
     51 H17        -8.0750    2.8711   -1.1368 H         1 <0>         0.1321
     52 H18       -10.2171    1.6792   -0.9192 H         1 <0>         0.1302
     53 H19        -8.1397   -2.0426   -0.7372 H         1 <0>         0.1330
     54 H20        -0.4210   -6.7011    0.4555 H         1 <0>         0.4152
     55 H21        -2.0969   -6.6365    0.5543 H         1 <0>         0.4205
@<TRIPOS>BOND
     1    1   10 ar
     2    1    2 ar
     3    1   35 1
     4    2    3 ar
     5    2   36 1
     6    3    8 ar
     7    3    4 ar
     8    4    5 ar
     9    4   37 1
    10    5    6 ar
    11    5   38 1
    12    6    7 ar
    13    6   39 1
    14    7    8 ar
    15    8    9 ar
    16    9   10 ar
    17    9   11 1
    18   10   40 1
    19   11   12 1
    20   11   41 1
    21   12   17 ar
    22   12   13 ar
    23   13   14 ar
    24   13   32 1
    25   14   15 ar
    26   14   31 1
    27   15   16 ar
    28   16   17 ar
    29   16   18 1
    30   18   23 1
    31   18   19 1
    32   19   20 1
    33   19   42 1
    34   19   43 1
    35   20   21 1
    36   20   44 1
    37   20   45 1
    38   21   22 1
    39   21   24 1
    40   22   23 1
    41   22   46 1
    42   22   47 1
    43   23   48 1
    44   23   49 1
    45   24   29 ar
    46   24   25 ar
    47   25   26 ar
    48   25   50 1
    49   26   27 ar
    50   26   51 1
    51   27   28 ar
    52   27   52 1
    53   28   29 ar
    54   28   30 1
    55   29   53 1
    56   31   54 1
    57   31   55 1
    58   32   33 2
    59   32   34 1
@<TRIPOS>MOLECULE
ZINC09450814
   47    51     0     0     0
SMALL
USER_CHARGES

@<TRIPOS>ATOM
      1 C1         -1.8745    1.1308    0.3124 C.3       1 <0>        -0.0765
      2 C2         -1.8736   -0.3696    0.1718 C.2       1 <0>         0.0750
      3 C3         -1.3564   -1.0840   -0.9080 C.2       1 <0>        -0.1988
      4 C4         -1.5498   -2.4257   -0.6533 C.2       1 <0>         0.1465
      5 N1         -2.1723   -2.5181    0.5582 N.pl3     1 <0>        -0.4569
      6 H1         -2.4379   -3.3378    1.0035 H         1 <0>         0.4417
      7 N2         -2.3532   -1.2178    1.0457 N.2       1 <0>        -0.2669
      8 C5         -1.1590   -3.5475   -1.5247 C.2       1 <0>         0.2771
      9 N3         -0.8118   -3.4702   -2.7899 N.2       1 <0>        -0.2332
     10 N4         -0.5330   -4.6409   -3.2404 N.2       1 <0>        -0.2646
     11 C6         -0.6848   -5.5383   -2.2919 C.2       1 <0>         0.1209
     12 N5         -1.0828   -4.8750   -1.1660 N.pl3     1 <0>        -0.3015
     13 N6         -1.3515   -5.4158    0.0592 N.3       1 <0>        -0.5880
     14 S1         -0.4176   -7.2734   -2.4429 S.3       1 <0>         0.0599
     15 C7          0.0984   -7.4895   -4.1684 C.3       1 <0>        -0.1484
     16 C8          0.3626   -8.9491   -4.4347 C.2       1 <0>         0.5350
     17 O1          0.8277   -9.6507   -3.5610 O.2       1 <0>        -0.4710
     18 N7          0.0821   -9.4751   -5.6435 N.am      1 <0>        -0.4832
     19 C9          0.1726  -10.8593   -5.7808 C.ar      1 <0>         0.1328
     20 C10         0.9854  -11.5689   -4.9024 C.ar      1 <0>        -0.1255
     21 C11         1.0941  -12.9418   -5.0065 C.ar      1 <0>        -0.0950
     22 C12         0.3949  -13.6232   -5.9854 C.ar      1 <0>        -0.1094
     23 C13        -0.4143  -12.9291   -6.8646 C.ar      1 <0>        -0.0742
     24 C14        -0.5265  -11.5484   -6.7675 C.ar      1 <0>        -0.1317
     25 S2         -1.5548  -10.6796   -7.9033 S.3       1 <0>         0.0476
     26 C15        -1.0294   -9.0046   -7.7593 C.ar      1 <0>        -0.1243
     27 C16        -0.2821   -8.5946   -6.6608 C.ar      1 <0>         0.1507
     28 C17         0.1192   -7.2657   -6.5729 C.ar      1 <0>        -0.1603
     29 C18        -0.2288   -6.3642   -7.5615 C.ar      1 <0>        -0.0012
     30 C19        -0.9798   -6.7773   -8.6469 C.ar      1 <0>        -0.1009
     31 C20        -1.3714   -8.0935   -8.7491 C.ar      1 <0>        -0.0517
     32 Cl1         0.2780   -4.7083   -7.4398 Cl        1 <0>        -0.0356
     33 H2         -0.9579    1.4498    0.8085 H         1 <0>         0.0812
     34 H3         -1.9312    1.5883   -0.6753 H         1 <0>         0.0828
     35 H4         -2.7351    1.4396    0.9058 H         1 <0>         0.0763
     36 H5         -0.8891   -0.6628   -1.7858 H         1 <0>         0.1628
     37 H6         -2.3230   -5.6783    0.1334 H         1 <0>         0.3694
     38 H7         -0.7489   -6.2029    0.2471 H         1 <0>         0.3862
     39 H8         -0.6919   -7.1365   -4.8309 H         1 <0>         0.1431
     40 H9          1.0078   -6.9167   -4.3502 H         1 <0>         0.1500
     41 H10         1.5344  -11.0433   -4.1352 H         1 <0>         0.1793
     42 H11         1.7278  -13.4849   -4.3210 H         1 <0>         0.1365
     43 H12         0.4814  -14.6969   -6.0631 H         1 <0>         0.1367
     44 H13        -0.9605  -13.4617   -7.6291 H         1 <0>         0.1391
     45 H14         0.7054   -6.9364   -5.7277 H         1 <0>         0.1654
     46 H15        -1.2517   -6.0704   -9.4168 H         1 <0>         0.1512
     47 H16        -1.9567   -8.4148   -9.5979 H         1 <0>         0.1515
@<TRIPOS>BOND
     1    1    2 1
     2    1   33 1
     3    1   34 1
     4    1   35 1
     5    2    7 2
     6    2    3 1
     7    3    4 2
     8    3   36 1
     9    4    5 1
    10    4    8 1
    11    5    6 1
    12    5    7 1
    13    8   12 1
    14    8    9 2
    15    9   10 1
    16   10   11 2
    17   11   12 1
    18   11   14 1
    19   12   13 1
    20   13   37 1
    21   13   38 1
    22   14   15 1
    23   15   16 1
    24   15   39 1
    25   15   40 1
    26   16   17 2
    27   16   18 am
    28   18   27 1
    29   18   19 1
    30   19   24 ar
    31   19   20 ar
    32   20   21 ar
    33   20   41 1
    34   21   22 ar
    35   21   42 1
    36   22   23 ar
    37   22   43 1
    38   23   24 ar
    39   23   44 1
    40   24   25 1
    41   25   26 1
    42   26   31 ar
    43   26   27 ar
    44   27   28 ar
    45   28   29 ar
    46   28   45 1
    47   29   30 ar
    48   29   32 1
    49   30   31 ar
    50   30   46 1
    51   31   47 1
@<TRIPOS>MOLECULE
ZINC09215616
   59    65     0     0     0
SMALL
USER_CHARGES
(4-chlorophenoxy)methyl-methyl-diphenyl-BLAH
@<TRIPOS>ATOM
      1 C1         -1.2485    2.1747    0.0201 C.3       1 <0>        -0.0808
      2 C2         -0.0157    1.3080    0.0092 C.2       1 <0>         0.1291
      3 C3          1.2967    1.7601   -0.0009 C.2       1 <0>        -0.2678
      4 C4          2.1227    0.6710   -0.0145 C.2       1 <0>         0.2731
      5 N1          1.3394   -0.4304   -0.0132 N.pl3     1 <0>        -0.2960
      6 N2          0.0021   -0.0041    0.0020 N.2       1 <0>        -0.2596
      7 C5          1.7828   -1.7600   -0.0250 C.ar      1 <0>         0.1378
      8 C6          2.9271   -2.1054   -0.7315 C.ar      1 <0>        -0.1173
      9 C7          3.3642   -3.4156   -0.7373 C.ar      1 <0>        -0.0972
     10 C8          2.6577   -4.3848   -0.0491 C.ar      1 <0>        -0.1140
     11 C9          1.5148   -4.0448    0.6511 C.ar      1 <0>        -0.1017
     12 C10         1.0756   -2.7354    0.6650 C.ar      1 <0>        -0.1025
     13 O1          3.4720    0.7739   -0.0260 O.3       1 <0>        -0.2023
     14 C11         4.0303    1.9752    0.2822 C.2       1 <0>         0.3517
     15 C12         3.2955    3.1294    0.3081 C.2       1 <0>        -0.1545
     16 C13         3.9831    4.3092    0.6417 C.2       1 <0>         0.3322
     17 N3          3.6044    5.5600    0.7585 N.2       1 <0>        -0.4980
     18 C14         4.6495    6.3109    1.1012 C.2       1 <0>         0.2681
     19 N4          5.7225    5.5565    1.2115 N.2       1 <0>        -0.2914
     20 N5          5.3358    4.2561    0.9225 N.pl3     1 <0>        -0.3426
     21 C15         6.0086    3.0793    0.8792 C.2       1 <0>         0.4239
     22 N6          5.3448    1.9949    0.5650 N.2       1 <0>        -0.4988
     23 C16         4.6097    7.8002    1.3280 C.3       1 <0>         0.1537
     24 O2          4.8763    8.4766    0.0977 O.3       1 <0>        -0.3028
     25 C17         4.8776    9.8355    0.1284 C.ar      1 <0>         0.1383
     26 C18         4.6219   10.5036    1.3170 C.ar      1 <0>        -0.1964
     27 C19         4.6284   11.8847    1.3472 C.ar      1 <0>        -0.0672
     28 C20         4.8795   12.6017    0.1907 C.ar      1 <0>        -0.0714
     29 C21         5.1296   11.9371   -0.9969 C.ar      1 <0>        -0.0683
     30 C22         5.1291   10.5561   -1.0300 C.ar      1 <0>        -0.1346
     31 Cl1         4.8812   14.3372    0.2299 Cl        1 <0>        -0.0676
     32 C23         1.8234    3.1713    0.0017 C.3       1 <0>         0.1070
     33 H1          1.3074    3.7572    0.7623 H         1 <0>         0.1125
     34 C24         1.6055    3.7952   -1.3527 C.ar      1 <0>        -0.0731
     35 C25         2.1667    3.2196   -2.4772 C.ar      1 <0>        -0.1058
     36 C26         1.9631    3.7895   -3.7201 C.ar      1 <0>        -0.1191
     37 C27         1.2064    4.9404   -3.8372 C.ar      1 <0>        -0.1156
     38 C28         0.6493    5.5187   -2.7121 C.ar      1 <0>        -0.1161
     39 C29         0.8492    4.9464   -1.4697 C.ar      1 <0>        -0.0931
     40 H2         -1.5404    2.3785    1.0503 H         1 <0>         0.0868
     41 H3         -1.0366    3.1143   -0.4901 H         1 <0>         0.0861
     42 H4         -2.0603    1.6582   -0.4922 H         1 <0>         0.0819
     43 H5          3.4769   -1.3497   -1.2729 H         1 <0>         0.1309
     44 H6          4.2563   -3.6842   -1.2836 H         1 <0>         0.1357
     45 H7          2.9994   -5.4093   -0.0582 H         1 <0>         0.1325
     46 H8          0.9652   -4.8038    1.1880 H         1 <0>         0.1357
     47 H9          0.1827   -2.4705    1.2118 H         1 <0>         0.1362
     48 H10         7.0653    3.0375    1.0982 H         1 <0>         0.2424
     49 H11         3.6233    8.0859    1.6933 H         1 <0>         0.1028
     50 H12         5.3640    8.0757    2.0650 H         1 <0>         0.0979
     51 H13         4.4219    9.9443    2.2190 H         1 <0>         0.1390
     52 H14         4.4334   12.4051    2.2732 H         1 <0>         0.1385
     53 H15         5.3250   12.4985   -1.8986 H         1 <0>         0.1422
     54 H16         5.3241   10.0377   -1.9572 H         1 <0>         0.1413
     55 H17         2.7612    2.3227   -2.3852 H         1 <0>         0.1066
     56 H18         2.3981    3.3374   -4.5992 H         1 <0>         0.1198
     57 H19         1.0502    5.3875   -4.8078 H         1 <0>         0.1216
     58 H20         0.0581    6.4179   -2.8035 H         1 <0>         0.1242
     59 H21         0.4142    5.3985   -0.5906 H         1 <0>         0.1262
@<TRIPOS>BOND
     1    1    2 1
     2    1   40 1
     3    1   41 1
     4    1   42 1
     5    2    6 2
     6    2    3 1
     7    3   32 1
     8    3    4 2
     9    4    5 1
    10    4   13 1
    11    5    6 1
    12    5    7 1
    13    7   12 ar
    14    7    8 ar
    15    8    9 ar
    16    8   43 1
    17    9   10 ar
    18    9   44 1
    19   10   11 ar
    20   10   45 1
    21   11   12 ar
    22   11   46 1
    23   12   47 1
    24   13   14 1
    25   14   22 1
    26   14   15 2
    27   15   16 1
    28   15   32 1
    29   16   20 1
    30   16   17 2
    31   17   18 1
    32   18   19 2
    33   18   23 1
    34   19   20 1
    35   20   21 1
    36   21   22 2
    37   21   48 1
    38   23   24 1
    39   23   49 1
    40   23   50 1
    41   24   25 1
    42   25   30 ar
    43   25   26 ar
    44   26   27 ar
    45   26   51 1
    46   27   28 ar
    47   27   52 1
    48   28   29 ar
    49   28   31 1
    50   29   30 ar
    51   29   53 1
    52   30   54 1
    53   32   33 1
    54   32   34 1
    55   34   39 ar
    56   34   35 ar
    57   35   36 ar
    58   35   55 1
    59   36   37 ar
    60   36   56 1
    61   37   38 ar
    62   37   57 1
    63   38   39 ar
    64   38   58 1
    65   39   59 1
@<TRIPOS>MOLECULE
ZINC12413052
   61    65     0     0     0
SMALL
USER_CHARGES
ethyl (4S,6R,7R)-4-(3-nitrophenyl)-2,5-dioxo-1-phenyl-7-(2-thienyl)-4,6,7,8-tetrahydro-3H-quinoline-6-carboxylate
@<TRIPOS>ATOM
      1 C1         -6.0751    1.6730    2.9054 C.3       1 <0>        -0.1531
      2 C2         -5.5513    0.3996    2.2384 C.3       1 <0>         0.0632
      3 O1         -4.1081    0.4831    2.1021 O.3       1 <0>        -0.3376
      4 C3         -3.4883   -0.5619    1.5316 C.2       1 <0>         0.4781
      5 O2         -4.1305   -1.5149    1.1584 O.2       1 <0>        -0.4924
      6 C4         -1.9916   -0.5465    1.3565 C.3       1 <0>        -0.1169
      7 H1         -1.5876    0.1049    1.9988 H         1 <0>         0.1241
      8 C5         -1.6468   -0.1372   -0.0796 C.3       1 <0>         0.0230
      9 H2         -0.5643   -0.0788   -0.1937 H         1 <0>         0.1239
     10 C6         -2.2086   -1.1894   -1.0380 C.3       1 <0>        -0.1065
     11 C7         -1.6366   -2.5441   -0.6970 C.2       1 <0>         0.2516
     12 C8         -1.2736   -2.8442    0.5667 C.2       1 <0>        -0.2745
     13 C9         -1.4393   -1.9228    1.6151 C.2       1 <0>         0.4297
     14 O3         -1.1326   -2.2419    2.7465 O.2       1 <0>        -0.4388
     15 C10        -0.6552   -4.1874    0.8786 C.3       1 <0>         0.0114
     16 H3         -0.8365   -4.4367    1.9241 H         1 <0>         0.1237
     17 C11        -1.2801   -5.2580   -0.0165 C.3       1 <0>        -0.1346
     18 C12        -1.2860   -4.7657   -1.4416 C.2       1 <0>         0.5203
     19 O4         -1.0996   -5.5446   -2.3518 O.2       1 <0>        -0.4790
     20 N1         -1.4971   -3.4660   -1.7042 N.am      1 <0>        -0.5047
     21 C13        -1.5763   -3.0412   -3.0367 C.ar      1 <0>         0.0992
     22 C14        -2.7875   -3.0959   -3.7136 C.ar      1 <0>        -0.0981
     23 C15        -2.8635   -2.6709   -5.0255 C.ar      1 <0>        -0.1061
     24 C16        -1.7327   -2.2019   -5.6685 C.ar      1 <0>        -0.1005
     25 C17        -0.5239   -2.1514   -4.9989 C.ar      1 <0>        -0.1066
     26 C18        -0.4425   -2.5697   -3.6851 C.ar      1 <0>        -0.1052
     27 C19         0.8294   -4.1273    0.6270 C.ar      1 <0>        -0.0763
     28 C20         1.3049   -3.8256   -0.6357 C.ar      1 <0>        -0.0770
     29 C21         2.6665   -3.7706   -0.8664 C.ar      1 <0>        -0.1103
     30 C22         3.5531   -4.0166    0.1656 C.ar      1 <0>        -0.0531
     31 C23         3.0777   -4.3168    1.4282 C.ar      1 <0>        -0.0385
     32 C24         1.7157   -4.3681    1.6599 C.ar      1 <0>        -0.0393
     33 N2          4.0268   -4.5798    2.5332 N.pl3     1 <0>         0.0261
     34 O5          5.2268   -4.5317    2.3297 O.2       1 <0>        -0.1572
     35 O6          3.6079   -4.8444    3.6458 O.3       1 <0>        -0.1523
     36 C25        -2.2610    1.2047   -0.3847 C.2       1 <0>        -0.1685
     37 C26        -1.6493    2.3971   -0.5881 C.2       1 <0>        -0.1287
     38 C27        -2.4232    3.5102   -0.8575 C.2       1 <0>        -0.1598
     39 C28        -3.7711    3.3765   -0.9104 C.2       1 <0>        -0.1611
     40 S1         -3.9826    1.6349   -0.5800 S.3       1 <0>         0.0530
     41 H4         -5.8175    2.5366    2.2924 H         1 <0>         0.0677
     42 H5         -7.1585    1.6102    3.0078 H         1 <0>         0.0820
     43 H6         -5.6226    1.7792    3.8914 H         1 <0>         0.0683
     44 H7         -6.0038    0.2933    1.2525 H         1 <0>         0.0732
     45 H8         -5.8089   -0.4641    2.8515 H         1 <0>         0.0721
     46 H9         -3.2940   -1.2230   -0.9440 H         1 <0>         0.1164
     47 H10        -1.9417   -0.9270   -2.0617 H         1 <0>         0.1105
     48 H11        -2.3029   -5.4518    0.3067 H         1 <0>         0.1227
     49 H12        -0.6952   -6.1754    0.0499 H         1 <0>         0.1213
     50 H13        -3.6700   -3.4667   -3.2134 H         1 <0>         0.1286
     51 H14        -3.8061   -2.7094   -5.5512 H         1 <0>         0.1339
     52 H15        -1.7937   -1.8746   -6.6959 H         1 <0>         0.1321
     53 H16         0.3575   -1.7843   -5.5037 H         1 <0>         0.1340
     54 H17         0.5018   -2.5297   -3.1626 H         1 <0>         0.1260
     55 H18         0.6124   -3.6334   -1.4418 H         1 <0>         0.1349
     56 H19         3.0380   -3.5356   -1.8529 H         1 <0>         0.1485
     57 H20         4.6170   -3.9739   -0.0148 H         1 <0>         0.1562
     58 H21         1.3442   -4.5994    2.6473 H         1 <0>         0.1591
     59 H22        -0.5732    2.4762   -0.5407 H         1 <0>         0.1365
     60 H23        -1.9610    4.4722   -1.0230 H         1 <0>         0.1376
     61 H24        -4.5219    4.1279   -1.1057 H         1 <0>         0.1878
@<TRIPOS>BOND
     1    1    2 1
     2    1   41 1
     3    1   42 1
     4    1   43 1
     5    2    3 1
     6    2   44 1
     7    2   45 1
     8    3    4 1
     9    4    5 2
    10    4    6 1
    11    6    7 1
    12    6   13 1
    13    6    8 1
    14    8    9 1
    15    8   10 1
    16    8   36 1
    17   10   11 1
    18   10   46 1
    19   10   47 1
    20   11   20 1
    21   11   12 2
    22   12   13 1
    23   12   15 1
    24   13   14 2
    25   15   16 1
    26   15   17 1
    27   15   27 1
    28   17   18 1
    29   17   48 1
    30   17   49 1
    31   18   19 2
    32   18   20 am
    33   20   21 1
    34   21   26 ar
    35   21   22 ar
    36   22   23 ar
    37   22   50 1
    38   23   24 ar
    39   23   51 1
    40   24   25 ar
    41   24   52 1
    42   25   26 ar
    43   25   53 1
    44   26   54 1
    45   27   32 ar
    46   27   28 ar
    47   28   29 ar
    48   28   55 1
    49   29   30 ar
    50   29   56 1
    51   30   31 ar
    52   30   57 1
    53   31   32 ar
    54   31   33 1
    55   32   58 1
    56   33   34 2
    57   33   35 1
    58   36   40 1
    59   36   37 2
    60   37   38 1
    61   37   59 1
    62   38   39 2
    63   38   60 1
    64   39   40 1
    65   39   61 1
@<TRIPOS>MOLECULE
ZINC34761255
   59    63     0     0     0
SMALL
USER_CHARGES

@<TRIPOS>ATOM
      1 C1          5.1619    3.4034   -5.1549 C.2       1 <0>        -0.2217
      2 C2          4.0638    2.6316   -4.7443 C.2       1 <0>        -0.1102
      3 C3          4.5246    1.3594   -4.5609 C.2       1 <0>        -0.0864
      4 O1          5.8435    1.3482   -4.8450 O.3       1 <0>        -0.1624
      5 C4          6.2315    2.5789   -5.2035 C.2       1 <0>        -0.0083
      6 C5          3.7260    0.2072   -4.1302 C.2       1 <0>         0.6066
      7 O2          2.5163    0.3046   -4.0410 O.2       1 <0>        -0.5143
      8 N1          4.3319   -0.9595   -3.8333 N.am      1 <0>        -0.6074
      9 C6          5.7980   -1.0503   -3.7868 C.3       1 <0>         0.0805
     10 C7          6.2118   -1.5982   -2.4153 C.3       1 <0>         0.0735
     11 N2          5.4182   -2.8022   -2.1317 N.am      1 <0>        -0.6077
     12 C8          3.9521   -2.7113   -2.1782 C.3       1 <0>         0.0981
     13 C9          3.5382   -2.1621   -3.5441 C.3       1 <0>         0.0988
     14 C10         6.0241   -3.9689   -1.8347 C.2       1 <0>         0.5606
     15 O3          5.3633   -4.9807   -1.7029 O.2       1 <0>        -0.5227
     16 C11         7.4916   -4.0181   -1.6693 C.ar      1 <0>        -0.1072
     17 C12         8.1707   -2.9215   -1.1314 C.ar      1 <0>        -0.0949
     18 C13         9.5321   -2.9657   -0.9773 C.ar      1 <0>        -0.0977
     19 C14        10.2424   -4.1106   -1.3589 C.ar      1 <0>        -0.0695
     20 C15         9.5605   -5.2088   -1.8973 C.ar      1 <0>        -0.0815
     21 C16         8.1985   -5.1635   -2.0456 C.ar      1 <0>        -0.0643
     22 C17        11.7020   -4.1594   -1.1948 C.2       1 <0>         0.0673
     23 C18        12.3293   -3.2338   -0.4281 C.2       1 <0>        -0.2049
     24 C19        13.7769   -2.9684   -0.2632 C.2       1 <0>         0.5597
     25 O4         14.6180   -3.6172   -0.8557 O.2       1 <0>        -0.4628
     26 N3         14.1070   -1.9889    0.5617 N.am      1 <0>        -0.5739
     27 C20        13.1710   -1.2721    1.2160 C.2       1 <0>         0.5358
     28 O5         13.3329   -0.3533    1.9960 O.2       1 <0>        -0.4125
     29 S1         11.6364   -1.9926    0.6559 S.3       1 <0>        -0.0398
     30 C21        15.5229   -1.6755    0.7697 C.3       1 <0>         0.1357
     31 C22        15.9625   -0.6443   -0.2376 C.ar      1 <0>        -0.1350
     32 C23        16.4636   -1.0448   -1.4622 C.ar      1 <0>        -0.0631
     33 C24        16.8666   -0.1001   -2.3868 C.ar      1 <0>        -0.1570
     34 C25        16.7682    1.2480   -2.0863 C.ar      1 <0>         0.1124
     35 C26        16.2661    1.6478   -0.8595 C.ar      1 <0>        -0.1564
     36 C27        15.8589    0.7014    0.0615 C.ar      1 <0>        -0.0668
     37 F1         17.1622    2.1724   -2.9893 F         1 <0>        -0.1357
     38 H1          5.1528    4.4570   -5.3918 H         1 <0>         0.1588
     39 H2          3.0506    2.9771   -4.6012 H         1 <0>         0.1614
     40 H3          7.2340    2.8652   -5.4854 H         1 <0>         0.2119
     41 H4          6.1479   -1.7227   -4.5701 H         1 <0>         0.0800
     42 H5          6.2306   -0.0603   -3.9309 H         1 <0>         0.1209
     43 H6          7.2715   -1.8531   -2.4278 H         1 <0>         0.1160
     44 H7          6.0229   -0.8465   -1.6489 H         1 <0>         0.0820
     45 H8          3.5195   -3.7014   -2.0340 H         1 <0>         0.1115
     46 H9          3.6023   -2.0389   -1.3949 H         1 <0>         0.0789
     47 H10         2.4788   -1.9061   -3.5280 H         1 <0>         0.1109
     48 H11         3.7235   -2.9155   -4.3097 H         1 <0>         0.0792
     49 H12         7.6227   -2.0386   -0.8372 H         1 <0>         0.1442
     50 H13        10.0567   -2.1178   -0.5622 H         1 <0>         0.1427
     51 H14        10.1070   -6.0924   -2.1923 H         1 <0>         0.1439
     52 H15         7.6718   -6.0119   -2.4570 H         1 <0>         0.1430
     53 H16        12.2749   -4.9327   -1.6850 H         1 <0>         0.1677
     54 H17        15.6640   -1.2830    1.7767 H         1 <0>         0.1103
     55 H18        16.1174   -2.5807    0.6460 H         1 <0>         0.1139
     56 H19        16.5405   -2.0963   -1.6962 H         1 <0>         0.1405
     57 H20        17.2583   -0.4131   -3.3433 H         1 <0>         0.1397
     58 H21        16.1893    2.6990   -0.6239 H         1 <0>         0.1399
     59 H22        15.4631    1.0131    1.0168 H         1 <0>         0.1380
@<TRIPOS>BOND
     1    1    5 2
     2    1    2 1
     3    1   38 1
     4    2    3 2
     5    2   39 1
     6    3    4 1
     7    3    6 1
     8    4    5 1
     9    5   40 1
    10    6    7 2
    11    6    8 am
    12    8   13 1
    13    8    9 1
    14    9   10 1
    15    9   41 1
    16    9   42 1
    17   10   11 1
    18   10   43 1
    19   10   44 1
    20   11   12 1
    21   11   14 am
    22   12   13 1
    23   12   45 1
    24   12   46 1
    25   13   47 1
    26   13   48 1
    27   14   15 2
    28   14   16 1
    29   16   21 ar
    30   16   17 ar
    31   17   18 ar
    32   17   49 1
    33   18   19 ar
    34   18   50 1
    35   19   20 ar
    36   19   22 1
    37   20   21 ar
    38   20   51 1
    39   21   52 1
    40   22   23 2
    41   22   53 1
    42   23   29 1
    43   23   24 1
    44   24   25 2
    45   24   26 am
    46   26   27 am
    47   26   30 1
    48   27   28 2
    49   27   29 1
    50   30   31 1
    51   30   54 1
    52   30   55 1
    53   31   36 ar
    54   31   32 ar
    55   32   33 ar
    56   32   56 1
    57   33   34 ar
    58   33   57 1
    59   34   35 ar
    60   34   37 1
    61   35   36 ar
    62   35   58 1
    63   36   59 1
@<TRIPOS>MOLECULE
ZINC40045758
   61    65     0     0     0
SMALL
USER_CHARGES

@<TRIPOS>ATOM
      1 C1         -0.0184    1.5028    0.0103 C.3       1 <0>        -0.1165
      2 C2          0.0021   -0.0041    0.0020 C.ar      1 <0>        -0.0979
      3 C3          0.0058   -0.6891   -1.2051 C.ar      1 <0>        -0.0589
      4 C4          0.0216   -2.0654   -1.2351 C.ar      1 <0>        -0.0890
      5 C5          0.0352   -2.7901   -0.0433 C.ar      1 <0>         0.1295
      6 C6          0.0374   -2.0861    1.1720 C.ar      1 <0>        -0.1982
      7 C7          0.0226   -0.6916    1.1835 C.ar      1 <0>        -0.0400
      8 C8          0.0678   -2.8486    2.4457 C.2       1 <0>         0.4597
      9 O1         -0.0968   -2.3318    3.5367 O.2       1 <0>        -0.4231
     10 C9          0.3146   -4.2829    2.2654 C.2       1 <0>        -0.2393
     11 C10         0.2950   -4.8502    1.0225 C.2       1 <0>         0.1013
     12 O2          0.0437   -4.1416   -0.0960 O.3       1 <0>        -0.1730
     13 C11         0.5838   -6.2870    1.1658 C.2       1 <0>         0.5732
     14 O3          0.6445   -7.0795    0.2469 O.2       1 <0>        -0.4170
     15 N1          0.7715   -6.5952    2.4652 N.am      1 <0>        -0.5013
     16 C12         0.6149   -5.3618    3.2534 C.3       1 <0>         0.2327
     17 H1         -0.2106   -5.4676    3.9573 H         1 <0>         0.1399
     18 C13         1.8916   -5.0505    3.9911 C.ar      1 <0>        -0.0814
     19 C14         3.1133   -5.3074    3.3964 C.ar      1 <0>        -0.1375
     20 C15         4.2863   -5.0230    4.0705 C.ar      1 <0>        -0.0718
     21 C16         4.2406   -4.4816    5.3408 C.ar      1 <0>        -0.1914
     22 C17         3.0163   -4.2230    5.9396 C.ar      1 <0>         0.1385
     23 C18         1.8405   -4.5037    5.2585 C.ar      1 <0>        -0.1122
     24 O4          2.9687   -3.6904    7.1890 O.3       1 <0>        -0.3055
     25 C19         4.2184   -3.4217    7.8277 C.3       1 <0>         0.0864
     26 C20         3.9687   -2.8384    9.1947 C.2       1 <0>        -0.1605
     27 C21         4.6492   -3.2727   10.2264 C.2       1 <0>        -0.1660
     28 C22         1.0600   -7.8495    2.9688 C.2       1 <0>         0.3052
     29 N2          1.2150   -8.9809    2.3046 N.2       1 <0>        -0.5364
     30 C23         1.4893  -10.1028    2.9194 C.2       1 <0>         0.2064
     31 C24         1.6071  -10.0355    4.3019 C.2       1 <0>        -0.3075
     32 S1          1.3044   -8.2965    4.5727 S.3       1 <0>         0.2478
     33 C25         1.9020  -11.0931    5.2664 C.2       1 <0>         0.5640
     34 O5          2.0852  -12.2329    4.8823 O.2       1 <0>        -0.4886
     35 O6          1.9712  -10.8055    6.5829 O.3       1 <0>        -0.3498
     36 C26         2.2635  -11.8879    7.4690 C.3       1 <0>         0.0358
     37 C27         1.6670  -11.3975    2.1688 C.3       1 <0>        -0.0939
     38 C28         0.0236   -2.7896   -2.5566 C.3       1 <0>        -0.1162
     39 H2          1.0042    1.8801    0.0026 H         1 <0>         0.0769
     40 H3         -0.5455    1.8639   -0.8728 H         1 <0>         0.0730
     41 H4         -0.5286    1.8543    0.9071 H         1 <0>         0.0730
     42 H5         -0.0043   -0.1355   -2.1324 H         1 <0>         0.1445
     43 H6          0.0237   -0.1571    2.1220 H         1 <0>         0.1463
     44 H7          3.1512   -5.7313    2.4038 H         1 <0>         0.1173
     45 H8          5.2392   -5.2246    3.6039 H         1 <0>         0.1315
     46 H9          5.1572   -4.2603    5.8673 H         1 <0>         0.1336
     47 H10         0.8861   -4.2988    5.7206 H         1 <0>         0.1424
     48 H11         4.7830   -4.3489    7.9259 H         1 <0>         0.0696
     49 H12         4.7877   -2.7114    7.2281 H         1 <0>         0.0734
     50 H13         3.2287   -2.0624    9.3237 H         1 <0>         0.1216
     51 H14         5.3892   -4.0487   10.0974 H         1 <0>         0.1001
     52 H15         4.4702   -2.8547   11.2060 H         1 <0>         0.1098
     53 H16         3.2320  -12.3167    7.2116 H         1 <0>         0.0643
     54 H17         2.2898  -11.5206    8.4949 H         1 <0>         0.1061
     55 H18         1.4916  -12.6519    7.3763 H         1 <0>         0.0647
     56 H19         2.7148  -11.5165    1.8928 H         1 <0>         0.0891
     57 H20         1.3615  -12.2299    2.8027 H         1 <0>         0.0985
     58 H21         1.0535  -11.3824    1.2680 H         1 <0>         0.0839
     59 H22         1.0517   -2.9523   -2.8802 H         1 <0>         0.0791
     60 H23        -0.4786   -3.7506   -2.4451 H         1 <0>         0.0765
     61 H24        -0.5008   -2.1898   -3.3005 H         1 <0>         0.0772
@<TRIPOS>BOND
     1    1    2 1
     2    1   39 1
     3    1   40 1
     4    1   41 1
     5    2    7 ar
     6    2    3 ar
     7    3    4 ar
     8    3   42 1
     9    4    5 ar
    10    4   38 1
    11    5   12 1
    12    5    6 ar
    13    6    7 ar
    14    6    8 1
    15    7   43 1
    16    8    9 2
    17    8   10 1
    18   10   16 1
    19   10   11 2
    20   11   12 1
    21   11   13 1
    22   13   14 2
    23   13   15 am
    24   15   16 1
    25   15   28 1
    26   16   17 1
    27   16   18 1
    28   18   23 ar
    29   18   19 ar
    30   19   20 ar
    31   19   44 1
    32   20   21 ar
    33   20   45 1
    34   21   22 ar
    35   21   46 1
    36   22   23 ar
    37   22   24 1
    38   23   47 1
    39   24   25 1
    40   25   26 1
    41   25   48 1
    42   25   49 1
    43   26   27 2
    44   26   50 1
    45   27   51 1
    46   27   52 1
    47   28   32 1
    48   28   29 2
    49   29   30 1
    50   30   31 2
    51   30   37 1
    52   31   32 1
    53   31   33 1
    54   33   34 2
    55   33   35 1
    56   35   36 1
    57   36   53 1
    58   36   54 1
    59   36   55 1
    60   37   56 1
    61   37   57 1
    62   37   58 1
    63   38   59 1
    64   38   60 1
    65   38   61 1
@<TRIPOS>MOLECULE
ZINC15087310
   60    65     0     0     0
SMALL
USER_CHARGES

@<TRIPOS>ATOM
      1 C1          0.1610    1.4352    1.0014 C.ar      1 <0>        -0.1229
      2 C2          1.3604    2.1216    0.9530 C.ar      1 <0>        -0.0986
      3 C3          2.5437    1.4346    0.7643 C.ar      1 <0>        -0.1396
      4 C4          2.5281    0.0536    0.6236 C.ar      1 <0>         0.1149
      5 C5          1.3224   -0.6328    0.6731 C.ar      1 <0>        -0.1362
      6 C6          0.1423    0.0597    0.8616 C.ar      1 <0>        -0.0986
      7 N1          3.7275   -0.6465    0.4315 N.am      1 <0>        -0.5178
      8 C7          3.7826   -1.9911    0.2822 C.2       1 <0>         0.5470
      9 O1          2.8478   -2.7477    0.1291 O.2       1 <0>        -0.4208
     10 C8          5.2336   -2.3522    0.3442 C.3       1 <0>        -0.1217
     11 H1          5.4605   -2.3987    1.4093 H         1 <0>         0.1422
     12 C9          5.6822   -3.6505   -0.2104 C.3       1 <0>         0.0720
     13 H2          6.5754   -3.9624    0.3308 H         1 <0>         0.1269
     14 C10         5.9927   -3.6567   -1.6633 C.2       1 <0>        -0.2004
     15 C11         6.1199   -2.6120   -2.5017 C.2       1 <0>         0.1030
     16 N2          6.4470   -2.9449   -3.7970 N.am      1 <0>        -0.5132
     17 C12         6.5886   -4.2367   -4.1457 C.2       1 <0>         0.4785
     18 O2          6.8666   -4.6988   -5.2383 O.2       1 <0>        -0.4519
     19 S1          6.2899   -5.0596   -2.7098 S.3       1 <0>         0.0977
     20 C13         6.6405   -1.8916   -4.7966 C.3       1 <0>         0.0719
     21 C14         8.0868   -1.4684   -4.8069 C.2       1 <0>         0.5070
     22 O3          8.8780   -1.9948   -4.0534 O.2       1 <0>        -0.5203
     23 N3          8.5010   -0.5050   -5.6535 N.am      1 <0>        -0.6063
     24 C15         7.5531    0.1462   -6.5680 C.3       1 <0>         0.1017
     25 C16         7.6452    1.6632   -6.3754 C.3       1 <0>        -0.1365
     26 C17         9.0983    2.1089   -6.5543 C.3       1 <0>        -0.1216
     27 C18         9.9746    1.4337   -5.4968 C.3       1 <0>        -0.1353
     28 C19         9.9078   -0.0817   -5.6752 C.3       1 <0>         0.1115
     29 S2          5.8534   -0.9485   -1.9469 S.3       1 <0>         0.0081
     30 C20         5.9394   -1.0811   -0.1450 C.3       1 <0>        -0.1118
     31 H3          6.9516   -0.9686    0.2435 H         1 <0>         0.1736
     32 C21         4.9309   -0.0419    0.3729 C.2       1 <0>         0.5499
     33 O4          5.1743    1.1067    0.6747 O.2       1 <0>        -0.4281
     34 C22         4.6012   -4.6699    0.0415 C.ar      1 <0>        -0.1501
     35 C23         3.6288   -4.9134   -0.9166 C.ar      1 <0>        -0.0178
     36 C24         2.6539   -5.8599   -0.6416 C.ar      1 <0>        -0.1667
     37 C25         2.6834   -6.5247    0.5700 C.ar      1 <0>         0.1097
     38 N4          3.6234   -6.2670    1.4580 N.ar      1 <0>        -0.4830
     39 C26         4.5699   -5.3778    1.2278 C.ar      1 <0>         0.1131
     40 H4         -0.7626    1.9741    1.1531 H         1 <0>         0.1283
     41 H5          1.3719    3.1960    1.0625 H         1 <0>         0.1320
     42 H6          3.4801    1.9713    0.7259 H         1 <0>         0.1520
     43 H7          1.3071   -1.7072    0.5636 H         1 <0>         0.1537
     44 H8         -0.7960   -0.4737    0.8998 H         1 <0>         0.1317
     45 H9          6.3656   -2.2702   -5.7811 H         1 <0>         0.1303
     46 H10         6.0131   -1.0355   -4.5485 H         1 <0>         0.1177
     47 H11         7.8058   -0.1074   -7.5975 H         1 <0>         0.0779
     48 H12         6.5405   -0.1897   -6.3447 H         1 <0>         0.0809
     49 H13         7.0180    2.1624   -7.1139 H         1 <0>         0.0800
     50 H14         7.3055    1.9239   -5.3730 H         1 <0>         0.0695
     51 H15         9.4452    1.8258   -7.5481 H         1 <0>         0.0664
     52 H16         9.1626    3.1912   -6.4421 H         1 <0>         0.0692
     53 H17        11.0054    1.7695   -5.6101 H         1 <0>         0.0787
     54 H18         9.6130    1.6966   -4.5027 H         1 <0>         0.0680
     55 H19        10.4482   -0.5679   -4.8630 H         1 <0>         0.0938
     56 H20        10.3567   -0.3543   -6.6303 H         1 <0>         0.0704
     57 H21         3.6306   -4.3782   -1.8547 H         1 <0>         0.1259
     58 H22         1.8810   -6.0748   -1.3646 H         1 <0>         0.1350
     59 H23         1.9276   -7.2635    0.7919 H         1 <0>         0.1557
     60 H24         5.3264   -5.1974    1.9771 H         1 <0>         0.1534
@<TRIPOS>BOND
     1    1    6 ar
     2    1    2 ar
     3    1   40 1
     4    2    3 ar
     5    2   41 1
     6    3    4 ar
     7    3   42 1
     8    4    5 ar
     9    4    7 1
    10    5    6 ar
    11    5   43 1
    12    6   44 1
    13    7   32 am
    14    7    8 am
    15    8    9 2
    16    8   10 1
    17   10   11 1
    18   10   30 1
    19   10   12 1
    20   12   13 1
    21   12   14 1
    22   12   34 1
    23   14   19 1
    24   14   15 2
    25   15   16 1
    26   15   29 1
    27   16   17 am
    28   16   20 1
    29   17   18 2
    30   17   19 1
    31   20   21 1
    32   20   45 1
    33   20   46 1
    34   21   22 2
    35   21   23 am
    36   23   28 1
    37   23   24 1
    38   24   25 1
    39   24   47 1
    40   24   48 1
    41   25   26 1
    42   25   49 1
    43   25   50 1
    44   26   27 1
    45   26   51 1
    46   26   52 1
    47   27   28 1
    48   27   53 1
    49   27   54 1
    50   28   55 1
    51   28   56 1
    52   29   30 1
    53   30   31 1
    54   30   32 1
    55   32   33 2
    56   34   39 ar
    57   34   35 ar
    58   35   36 ar
    59   35   57 1
    60   36   37 ar
    61   36   58 1
    62   37   38 ar
    63   37   59 1
    64   38   39 ar
    65   39   60 1
@<TRIPOS>MOLECULE
ZINC08695865
   65    70     0     0     0
SMALL
USER_CHARGES
N-benzo[1,3]dioxol-5-yl-1-[[2-(2,3-dioxoindolin-1-yl)acetyl]-(3-pyridylmethyl)amino]-cyclopentane-1-carboxamide
@<TRIPOS>ATOM
      1 C1         11.5511   -1.7853    9.5956 C.ar      1 <0>        -0.1534
      2 C2         11.6679   -1.2815    8.3107 C.ar      1 <0>        -0.0408
      3 C3         10.5546   -0.8344    7.6243 C.ar      1 <0>        -0.1503
      4 C4          9.3003   -0.8856    8.2185 C.ar      1 <0>         0.1973
      5 C5          9.1845   -1.3973    9.5212 C.ar      1 <0>        -0.2328
      6 C6         10.3144   -1.8454   10.2051 C.ar      1 <0>        -0.0031
      7 C7          7.7552   -1.3250    9.8767 C.2       1 <0>         0.3944
      8 O1          7.2328   -1.6681   10.9170 O.2       1 <0>        -0.3657
      9 C8          7.0899   -0.7284    8.6720 C.2       1 <0>         0.4971
     10 O2          5.9063   -0.4926    8.5494 O.2       1 <0>        -0.4372
     11 N1          8.0441   -0.5055    7.7517 N.am      1 <0>        -0.5324
     12 C9          7.7952    0.0701    6.4278 C.3       1 <0>         0.0877
     13 C10         7.5122   -1.0361    5.4442 C.2       1 <0>         0.4960
     14 O3          7.3694   -2.1747    5.8367 O.2       1 <0>        -0.4917
     15 N2          7.4178   -0.7600    4.1284 N.am      1 <0>        -0.6055
     16 C11         7.6967    0.5934    3.6420 C.3       1 <0>         0.1314
     17 C12         6.4340    1.4146    3.6899 C.ar      1 <0>        -0.1852
     18 C13         5.4840    1.3007    2.6862 C.ar      1 <0>        -0.0727
     19 C14         4.3356    2.0723    2.7740 C.ar      1 <0>        -0.1627
     20 C15         4.1814    2.9308    3.8464 C.ar      1 <0>         0.1135
     21 N3          5.1083    3.0167    4.7802 N.ar      1 <0>        -0.4713
     22 C16         6.2109    2.2948    4.7315 C.ar      1 <0>         0.1088
     23 C17         7.0363   -1.8135    3.1845 C.3       1 <0>         0.1630
     24 C18         7.2151   -1.3160    1.7352 C.3       1 <0>        -0.1383
     25 C19         8.6166   -1.8332    1.3263 C.3       1 <0>        -0.1201
     26 C20         8.6740   -3.2295    1.9943 C.3       1 <0>        -0.1242
     27 C21         7.9639   -3.0301    3.3492 C.3       1 <0>        -0.1087
     28 C22         5.6042   -2.2209    3.4174 C.2       1 <0>         0.5192
     29 O4          5.2414   -3.3454    3.1435 O.2       1 <0>        -0.5015
     30 N4          4.7266   -1.3358    3.9301 N.am      1 <0>        -0.6630
     31 C23         3.4245   -1.7439    4.2474 C.ar      1 <0>         0.1538
     32 C24         2.8195   -2.7611    3.5214 C.ar      1 <0>        -0.1161
     33 C25         1.5353   -3.1647    3.8330 C.ar      1 <0>        -0.0793
     34 C26         0.8478   -2.5562    4.8707 C.ar      1 <0>         0.0171
     35 C27         1.4523   -1.5359    5.6012 C.ar      1 <0>         0.0572
     36 C28         2.7393   -1.1318    5.2878 C.ar      1 <0>        -0.1262
     37 O5          0.5779   -1.1068    6.5576 O.3       1 <0>        -0.3058
     38 C29        -0.4100   -2.1482    6.6707 C.3       1 <0>         0.2129
     39 O6         -0.4061   -2.7661    5.3702 O.3       1 <0>        -0.3071
     40 H1         12.4289   -2.1311   10.1212 H         1 <0>         0.1401
     41 H2         12.6391   -1.2373    7.8403 H         1 <0>         0.1405
     42 H3         10.6604   -0.4437    6.6230 H         1 <0>         0.1321
     43 H4         10.2221   -2.2373   11.2072 H         1 <0>         0.1407
     44 H5          8.6732    0.6287    6.1035 H         1 <0>         0.1254
     45 H6          6.9366    0.7398    6.4783 H         1 <0>         0.1272
     46 H7          8.4556    1.0568    4.2724 H         1 <0>         0.1018
     47 H8          8.0587    0.5431    2.6151 H         1 <0>         0.1184
     48 H9          5.6333    0.6240    1.8578 H         1 <0>         0.1394
     49 H10         3.5730    2.0065    2.0121 H         1 <0>         0.1429
     50 H11         3.2916    3.5383    3.9200 H         1 <0>         0.1627
     51 H12         6.9479    2.3923    5.5149 H         1 <0>         0.1555
     52 H13         6.4478   -1.7414    1.0884 H         1 <0>         0.0919
     53 H14         7.1849   -0.2270    1.6992 H         1 <0>         0.0936
     54 H15         9.3982   -1.1839    1.7207 H         1 <0>         0.0733
     55 H16         8.6986   -1.9197    0.2428 H         1 <0>         0.0795
     56 H17         9.7085   -3.5369    2.1474 H         1 <0>         0.0739
     57 H18         8.1423   -3.9639    1.3894 H         1 <0>         0.0739
     58 H19         8.6985   -2.8364    4.1309 H         1 <0>         0.0818
     59 H20         7.3783   -3.9152    3.5977 H         1 <0>         0.0906
     60 H21         4.9966   -0.4162    4.0795 H         1 <0>         0.4068
     61 H22         3.3531   -3.2371    2.7119 H         1 <0>         0.1602
     62 H23         1.0667   -3.9562    3.2669 H         1 <0>         0.1414
     63 H24         3.2099   -0.3408    5.8529 H         1 <0>         0.1324
     64 H25        -1.3898   -1.7244    6.8905 H         1 <0>         0.1340
     65 H26        -0.1221   -2.8676    7.4374 H         1 <0>         0.0857
@<TRIPOS>BOND
     1    1    6 ar
     2    1    2 ar
     3    1   40 1
     4    2    3 ar
     5    2   41 1
     6    3    4 ar
     7    3   42 1
     8    4   11 1
     9    4    5 ar
    10    5    6 ar
    11    5    7 1
    12    6   43 1
    13    7    8 2
    14    7    9 1
    15    9   10 2
    16    9   11 am
    17   11   12 1
    18   12   13 1
    19   12   44 1
    20   12   45 1
    21   13   14 2
    22   13   15 am
    23   15   16 1
    24   15   23 1
    25   16   17 1
    26   16   46 1
    27   16   47 1
    28   17   22 ar
    29   17   18 ar
    30   18   19 ar
    31   18   48 1
    32   19   20 ar
    33   19   49 1
    34   20   21 ar
    35   20   50 1
    36   21   22 ar
    37   22   51 1
    38   23   27 1
    39   23   24 1
    40   23   28 1
    41   24   25 1
    42   24   52 1
    43   24   53 1
    44   25   26 1
    45   25   54 1
    46   25   55 1
    47   26   27 1
    48   26   56 1
    49   26   57 1
    50   27   58 1
    51   27   59 1
    52   28   29 2
    53   28   30 am
    54   30   31 1
    55   30   60 1
    56   31   36 ar
    57   31   32 ar
    58   32   33 ar
    59   32   61 1
    60   33   34 ar
    61   33   62 1
    62   34   39 1
    63   34   35 ar
    64   35   36 ar
    65   35   37 1
    66   36   63 1
    67   37   38 1
    68   38   39 1
    69   38   64 1
    70   38   65 1
@<TRIPOS>MOLECULE
ZINC13895890
   56    59     0     0     0
SMALL
USER_CHARGES
(2S)-1,4-bis(benzenesulfonyl)-N-(2-thienylmethyleneamino)piperazine-2-carboxamide
@<TRIPOS>ATOM
      1 C1          5.9898   -3.3423   -2.7953 C.ar      1 <0>        -0.0612
      2 C2          7.0359   -2.5910   -2.2929 C.ar      1 <0>        -0.1376
      3 C3          6.9527   -2.0531   -1.0223 C.ar      1 <0>        -0.0203
      4 C4          5.8237   -2.2667   -0.2538 C.ar      1 <0>        -0.6800
      5 C5          4.7800   -3.0227   -0.7539 C.ar      1 <0>        -0.0235
      6 C6          4.8610   -3.5563   -2.0266 C.ar      1 <0>        -0.1387
      7 S1          5.7179   -1.5814    1.3661 S.o2      1 <0>         2.6875
      8 O1          7.0527   -1.3779    1.8089 O.2       1 <0>        -0.9461
      9 O2          4.7901   -2.3817    2.0858 O.2       1 <0>        -0.9470
     10 N1          5.0340   -0.0804    1.2190 N.pl3     1 <0>        -0.9915
     11 C7          5.8743    1.1074    1.0124 C.3       1 <0>         0.0993
     12 C8          5.3992    1.8296   -0.2545 C.3       1 <0>         0.1045
     13 N2          3.9411    1.9977   -0.1803 N.pl3     1 <0>        -0.9845
     14 C9          3.1007    0.8099    0.0263 C.3       1 <0>         0.1278
     15 H1          3.1898    0.1421   -0.8306 H         1 <0>         0.1063
     16 C10         3.5759    0.0877    1.2932 C.3       1 <0>         0.1192
     17 C11         1.6631    1.2301    0.1927 C.2       1 <0>         0.5395
     18 O3          1.3174    1.8277    1.1904 O.2       1 <0>        -0.4876
     19 N3          0.7615    0.9421   -0.7668 N.am      1 <0>        -0.5551
     20 N4         -0.5738    1.3379   -0.6147 N.2       1 <0>        -0.2012
     21 C12        -1.4428    1.0647   -1.5430 C.2       1 <0>         0.1414
     22 C13        -2.8406    1.4789   -1.3838 C.2       1 <0>        -0.1283
     23 C14        -3.9101    1.2896   -2.2419 C.2       1 <0>        -0.1204
     24 C15        -5.1415    1.7751   -1.8684 C.2       1 <0>        -0.1641
     25 C16        -5.2695    2.4198   -0.6793 C.2       1 <0>        -0.1752
     26 S2         -3.6085    2.3522   -0.0291 S.3       1 <0>         0.1146
     27 S3          3.2572    3.4987   -0.3274 S.o2      1 <0>         2.6801
     28 O4          4.1312    4.2649   -1.1449 O.2       1 <0>        -0.9492
     29 O5          1.8908    3.2918   -0.6580 O.2       1 <0>        -0.9320
     30 C17         3.2819    4.2413    1.2703 C.ar      1 <0>        -0.6767
     31 C18         2.1422    4.2361    2.0526 C.ar      1 <0>         0.0065
     32 C19         2.1628    4.8148    3.3078 C.ar      1 <0>        -0.1432
     33 C20         3.3206    5.4068    3.7771 C.ar      1 <0>        -0.0597
     34 C21         4.4588    5.4166    2.9926 C.ar      1 <0>        -0.1458
     35 C22         4.4394    4.8340    1.7392 C.ar      1 <0>        -0.0254
     36 H2          6.0547   -3.7623   -3.7881 H         1 <0>         0.1324
     37 H3          7.9180   -2.4241   -2.8933 H         1 <0>         0.1348
     38 H4          7.7699   -1.4661   -0.6298 H         1 <0>         0.1407
     39 H5          3.8998   -3.1933   -0.1519 H         1 <0>         0.1395
     40 H6          4.0439   -4.1435   -2.4189 H         1 <0>         0.1342
     41 H7          5.7824    1.7742    1.8698 H         1 <0>         0.0894
     42 H8          6.9146    0.8037    0.8951 H         1 <0>         0.1118
     43 H9          5.8773    2.8070   -0.3195 H         1 <0>         0.1100
     44 H10         5.6575    1.2369   -1.1320 H         1 <0>         0.0894
     45 H11         3.3203    0.6818    2.1705 H         1 <0>         0.1038
     46 H12         3.0954   -0.8884    1.3598 H         1 <0>         0.1113
     47 H13         1.0379    0.4644   -1.5644 H         1 <0>         0.3855
     48 H14        -1.1351    0.5327   -2.4311 H         1 <0>         0.1342
     49 H15        -3.7808    0.7731   -3.1815 H         1 <0>         0.1391
     50 H16        -5.9978    1.6455   -2.5137 H         1 <0>         0.1375
     51 H17        -6.1525    2.8580   -0.2379 H         1 <0>         0.1879
     52 H18         1.2366    3.7770    1.6845 H         1 <0>         0.1597
     53 H19         1.2737    4.8069    3.9208 H         1 <0>         0.1321
     54 H20         3.3359    5.8613    4.7566 H         1 <0>         0.1299
     55 H21         5.3633    5.8790    3.3593 H         1 <0>         0.1319
     56 H22         5.3286    4.8417    1.1264 H         1 <0>         0.1323
@<TRIPOS>BOND
     1    1    6 ar
     2    1    2 ar
     3    1   36 1
     4    2    3 ar
     5    2   37 1
     6    3    4 ar
     7    3   38 1
     8    4    5 ar
     9    4    7 1
    10    5    6 ar
    11    5   39 1
    12    6   40 1
    13    7    8 2
    14    7    9 2
    15    7   10 1
    16   10   16 1
    17   10   11 1
    18   11   12 1
    19   11   41 1
    20   11   42 1
    21   12   13 1
    22   12   43 1
    23   12   44 1
    24   13   14 1
    25   13   27 1
    26   14   15 1
    27   14   16 1
    28   14   17 1
    29   16   45 1
    30   16   46 1
    31   17   18 2
    32   17   19 am
    33   19   20 1
    34   19   47 1
    35   20   21 2
    36   21   22 1
    37   21   48 1
    38   22   26 1
    39   22   23 2
    40   23   24 1
    41   23   49 1
    42   24   25 2
    43   24   50 1
    44   25   26 1
    45   25   51 1
    46   27   28 2
    47   27   29 2
    48   27   30 1
    49   30   35 ar
    50   30   31 ar
    51   31   32 ar
    52   31   52 1
    53   32   33 ar
    54   32   53 1
    55   33   34 ar
    56   33   54 1
    57   34   35 ar
    58   34   55 1
    59   35   56 1
@<TRIPOS>MOLECULE
ZINC30939279
   68    70     0     0     0
SMALL
USER_CHARGES
(2S)-6-tert-butyl-N-[4-(diethylsulfamoyl)phenyl]-4-methylsulfonyl-2,3-dihydro-1,4-benzoxazine-2-carboxamide
@<TRIPOS>ATOM
      1 C1         -9.5242   -0.0887    0.4068 C.3       1 <0>        -0.1772
      2 C2         -8.1285    0.4130    0.7825 C.3       1 <0>         0.1185
      3 N1         -7.2103   -0.7245    0.8789 N.pl3     1 <0>        -0.9953
      4 C3         -7.1182   -1.4878    2.1260 C.3       1 <0>         0.1061
      5 C4         -6.1329   -0.8003    3.0732 C.3       1 <0>        -0.1792
      6 S1         -6.2764   -1.1473   -0.4216 S.o2      1 <0>         2.6893
      7 O1         -6.9418   -0.6548   -1.5766 O.2       1 <0>        -0.9532
      8 O2         -5.9501   -2.5206   -0.2579 O.2       1 <0>        -0.9545
      9 C5         -4.7648   -0.2514   -0.2909 C.ar      1 <0>        -0.6923
     10 C6         -3.6958   -0.7984    0.3948 C.ar      1 <0>         0.0010
     11 C7         -2.5096   -0.0987    0.4991 C.ar      1 <0>        -0.1442
     12 C8         -2.3910    1.1552   -0.0859 C.ar      1 <0>         0.2065
     13 C9         -3.4682    1.7039   -0.7694 C.ar      1 <0>        -0.1634
     14 C10        -4.6500    0.9969   -0.8746 C.ar      1 <0>        -0.0001
     15 N2         -1.1906    1.8666    0.0178 N.am      1 <0>        -0.6855
     16 C11        -0.0143    1.2088    0.0069 C.2       1 <0>         0.5272
     17 O3          0.0022   -0.0038   -0.0081 O.2       1 <0>        -0.4806
     18 C12         1.2804    1.9801    0.0072 C.3       1 <0>         0.0692
     19 H1          1.3299    2.6301    0.8932 H         1 <0>         0.1139
     20 C13         1.4083    2.7713   -1.3024 C.3       1 <0>         0.0803
     21 N3          2.7063    3.4672   -1.2768 N.pl3     1 <0>        -0.9381
     22 C14         3.8179    2.7574   -0.7957 C.ar      1 <0>         0.0980
     23 C15         5.0978    3.2458   -1.0054 C.ar      1 <0>        -0.1285
     24 C16         6.1893    2.5469   -0.5234 C.ar      1 <0>        -0.0610
     25 C17         6.0040    1.3631    0.1663 C.ar      1 <0>        -0.1049
     26 C18         4.7295    0.8708    0.3768 C.ar      1 <0>        -0.1096
     27 C19         3.6290    1.5641   -0.1038 C.ar      1 <0>         0.0940
     28 O4          2.3795    1.0713    0.1055 O.3       1 <0>        -0.2851
     29 C20         7.5819    3.0764   -0.7496 C.3       1 <0>        -0.0267
     30 C21         8.5988    2.1220   -0.1204 C.3       1 <0>        -0.1480
     31 C22         7.8478    3.1866   -2.2523 C.3       1 <0>        -0.1426
     32 C23         7.7131    4.4581   -0.1058 C.3       1 <0>        -0.1448
     33 S2          2.8493    5.0329   -1.7970 S.o2      1 <0>         2.6011
     34 O5          1.5575    5.5956   -1.6127 O.2       1 <0>        -0.9431
     35 O6          3.9710    5.5479   -1.0928 O.2       1 <0>        -0.9301
     36 C24         3.2278    4.9035   -3.5663 C.3       1 <0>        -0.6720
     37 H2        -10.2136    0.7654    0.3344 H         1 <0>         0.0703
     38 H3         -9.8834   -0.7855    1.1785 H         1 <0>         0.0605
     39 H4         -9.4790   -0.6066   -0.5626 H         1 <0>         0.0646
     40 H5         -7.7693    1.1098    0.0108 H         1 <0>         0.0817
     41 H6         -8.1737    0.9310    1.7519 H         1 <0>         0.0816
     42 H7         -8.1095   -1.5363    2.6002 H         1 <0>         0.0870
     43 H8         -6.7662   -2.5067    1.9071 H         1 <0>         0.0955
     44 H9         -6.0638   -1.3735    4.0095 H         1 <0>         0.0717
     45 H10        -6.4850    0.2186    3.2921 H         1 <0>         0.0616
     46 H11        -5.1416   -0.7518    2.5990 H         1 <0>         0.0562
     47 H12        -3.7886   -1.7735    0.8496 H         1 <0>         0.1435
     48 H13        -1.6750   -0.5264    1.0348 H         1 <0>         0.1487
     49 H14        -3.3807    2.6809   -1.2214 H         1 <0>         0.1393
     50 H15        -5.4867    1.4213   -1.4094 H         1 <0>         0.1444
     51 H16        -1.2069    2.9628    0.1082 H         1 <0>         0.4445
     52 H17         1.3613    2.0784   -2.1555 H         1 <0>         0.1018
     53 H18         0.5851    3.4974   -1.3740 H         1 <0>         0.1257
     54 H19         5.2424    4.1705   -1.5443 H         1 <0>         0.1466
     55 H20         6.8588    0.8207    0.5425 H         1 <0>         0.1395
     56 H21         4.5908   -0.0548    0.9158 H         1 <0>         0.1389
     57 H22         9.6153    2.5085   -0.2855 H         1 <0>         0.0611
     58 H23         8.5045    1.1286   -0.5833 H         1 <0>         0.0606
     59 H24         8.4076    2.0428    0.9600 H         1 <0>         0.0611
     60 H25         8.8643    3.5731   -2.4174 H         1 <0>         0.0624
     61 H26         7.1167    3.8727   -2.7047 H         1 <0>         0.0549
     62 H27         7.7536    2.1932   -2.7151 H         1 <0>         0.0585
     63 H28         8.7297    4.8445   -0.2710 H         1 <0>         0.0594
     64 H29         7.5220    4.3788    0.9746 H         1 <0>         0.0578
     65 H30         6.9820    5.1443   -0.5581 H         1 <0>         0.0652
     66 H31         3.3394    5.9116   -3.9920 H         1 <0>         0.1400
     67 H32         2.4089    4.3776   -4.0789 H         1 <0>         0.1344
     68 H33         4.1646    4.3429   -3.7008 H         1 <0>         0.1356
@<TRIPOS>BOND
     1    1    2 1
     2    1   37 1
     3    1   38 1
     4    1   39 1
     5    2    3 1
     6    2   40 1
     7    2   41 1
     8    3    4 1
     9    3    6 1
    10    4    5 1
    11    4   42 1
    12    4   43 1
    13    5   44 1
    14    5   45 1
    15    5   46 1
    16    6    7 2
    17    6    8 2
    18    6    9 1
    19    9   14 ar
    20    9   10 ar
    21   10   11 ar
    22   10   47 1
    23   11   12 ar
    24   11   48 1
    25   12   13 ar
    26   12   15 1
    27   13   14 ar
    28   13   49 1
    29   14   50 1
    30   15   16 am
    31   15   51 1
    32   16   17 2
    33   16   18 1
    34   18   19 1
    35   18   28 1
    36   18   20 1
    37   20   21 1
    38   20   52 1
    39   20   53 1
    40   21   22 1
    41   21   33 1
    42   22   27 ar
    43   22   23 ar
    44   23   24 ar
    45   23   54 1
    46   24   25 ar
    47   24   29 1
    48   25   26 ar
    49   25   55 1
    50   26   27 ar
    51   26   56 1
    52   27   28 1
    53   29   30 1
    54   29   31 1
    55   29   32 1
    56   30   57 1
    57   30   58 1
    58   30   59 1
    59   31   60 1
    60   31   61 1
    61   31   62 1
    62   32   63 1
    63   32   64 1
    64   32   65 1
    65   33   34 2
    66   33   35 2
    67   33   36 1
    68   36   66 1
    69   36   67 1
    70   36   68 1
@<TRIPOS>MOLECULE
ZINC35459141
   75    78     0     0     0
SMALL
USER_CHARGES

@<TRIPOS>ATOM
      1 C1          0.0419    1.2937    0.6945 C.3       1 <0>        -0.1469
      2 C2         -0.0018   -0.2069    0.5628 C.2       1 <0>         0.4705
      3 O1          1.0254   -0.8431    0.5572 O.2       1 <0>        -0.5114
      4 O2         -1.1819   -0.8368    0.4515 O.3       1 <0>        -0.3435
      5 C3         -1.1486   -2.2604    0.3301 C.3       1 <0>         0.0902
      6 H1         -0.2286   -2.5699    0.8935 H         1 <0>         0.0793
      7 C4         -0.9260   -2.6830   -1.0991 C.3       1 <0>        -0.1173
      8 C5         -2.1487   -3.0336   -1.9252 C.3       1 <0>        -0.0565
      9 H2         -1.7682   -3.7132   -2.7431 H         1 <0>         0.0751
     10 C6         -3.1204   -3.9056   -1.1336 C.3       1 <0>        -0.0275
     11 C7         -3.4878   -3.2246    0.1643 C.3       1 <0>        -0.0548
     12 H3         -3.9674   -2.2502   -0.0891 H         1 <0>         0.0798
     13 C8         -2.3116   -2.8993    1.0736 C.3       1 <0>        -0.0142
     14 C9         -2.7896   -1.9147    2.1546 C.3       1 <0>        -0.1033
     15 H4         -3.1268   -0.9926    1.6445 H         1 <0>         0.1362
     16 C10        -1.6436   -1.5577    3.0729 C.2       1 <0>         0.4856
     17 O3         -1.1007   -0.4744    2.9881 O.2       1 <0>        -0.4211
     18 O4         -1.2272   -2.4348    4.0007 O.3       1 <0>        -0.3344
     19 C11        -2.2068   -2.9810    4.8853 C.3       1 <0>         0.1090
     20 C12        -3.4621   -3.3189    4.1168 C.2       1 <0>         0.3605
     21 O5         -4.0923   -4.3176    4.4171 O.2       1 <0>        -0.3866
     22 C13        -3.9462   -2.4443    2.9897 C.3       1 <0>        -0.0538
     23 C14        -4.9534   -3.1877    2.1542 C.2       1 <0>        -0.1189
     24 C15        -6.2301   -3.1174    2.4718 C.2       1 <0>        -0.1613
     25 C16        -4.5381   -4.0083    0.9561 C.3       1 <0>        -0.0767
     26 C17        -4.6878   -1.2322    3.5980 C.3       1 <0>        -0.1467
     27 C18        -1.6463   -4.2682    5.5135 C.3       1 <0>        -0.1453
     28 C19        -2.5061   -2.0030    5.9931 C.2       1 <0>         0.4504
     29 O6         -3.6259   -1.9198    6.4392 O.2       1 <0>        -0.4767
     30 O7         -1.5286   -1.2249    6.4837 O.3       1 <0>        -0.3275
     31 C20        -1.8834   -0.3213    7.5323 C.3       1 <0>         0.0282
     32 C21        -1.7844   -4.1531    1.7869 C.3       1 <0>        -0.1866
     33 C22        -4.3458   -4.2155   -2.0023 C.3       1 <0>         0.1260
     34 H5         -3.9714   -4.6298   -2.9558 H         1 <0>         0.0532
     35 C23        -5.0909   -2.9199   -2.3191 C.3       1 <0>        -0.2084
     36 C24        -4.1376   -2.1092   -3.1714 C.2       1 <0>         0.3722
     37 O8         -4.4818   -1.6864   -4.2495 O.2       1 <0>        -0.4440
     38 C25        -2.7441   -1.8415   -2.6459 C.3       1 <0>        -0.0988
     39 C26        -1.8569   -1.5260   -3.8742 C.3       1 <0>        -0.1418
     40 C27        -2.7985   -0.5770   -1.7872 C.3       1 <0>        -0.1386
     41 O9         -5.1906   -5.1851   -1.4079 O.3       1 <0>        -0.5438
     42 C28        -2.4467   -5.2728   -0.9105 C.3       1 <0>        -0.1481
     43 H6          1.0785    1.6215    0.7727 H         1 <0>         0.0988
     44 H7         -0.4180    1.7490   -0.1826 H         1 <0>         0.0963
     45 H8         -0.5032    1.5959    1.5887 H         1 <0>         0.1053
     46 H9         -0.3510   -1.8923   -1.6162 H         1 <0>         0.0797
     47 H10        -0.2401   -3.5548   -1.1042 H         1 <0>         0.0819
     48 H11        -6.5347   -2.6090    3.3746 H         1 <0>         0.1037
     49 H12        -6.9719   -3.5682    1.8293 H         1 <0>         0.1097
     50 H13        -5.4398   -4.1322    0.3396 H         1 <0>         0.0989
     51 H14        -4.1852   -4.9825    1.2630 H         1 <0>         0.0862
     52 H15        -5.1690   -0.6638    2.8021 H         1 <0>         0.0882
     53 H16        -5.4429   -1.5837    4.3011 H         1 <0>         0.0814
     54 H17        -3.9744   -0.5943    4.1199 H         1 <0>         0.0544
     55 H18        -0.7372   -4.0359    6.0681 H         1 <0>         0.0943
     56 H19        -2.3864   -4.6940    6.1911 H         1 <0>         0.1006
     57 H20        -1.4181   -4.9871    4.7266 H         1 <0>         0.0949
     58 H21        -1.0037    0.2460    7.8363 H         1 <0>         0.1114
     59 H22        -2.6527    0.3641    7.1766 H         1 <0>         0.0648
     60 H23        -2.2645   -0.8848    8.3840 H         1 <0>         0.0672
     61 H24        -1.0729   -3.8598    2.5588 H         1 <0>         0.0732
     62 H25        -2.6168   -4.6879    2.2444 H         1 <0>         0.0731
     63 H26        -1.2894   -4.8014    1.0639 H         1 <0>         0.0846
     64 H27        -5.9955   -3.1368   -2.8850 H         1 <0>         0.0939
     65 H28        -5.3347   -2.3823   -1.4094 H         1 <0>         0.1100
     66 H29        -1.8332   -2.3909   -4.5372 H         1 <0>         0.0570
     67 H30        -2.2677   -0.6695   -4.4088 H         1 <0>         0.0682
     68 H31        -0.8448   -1.2953   -3.5417 H         1 <0>         0.0628
     69 H32        -1.7893   -0.3028   -1.4799 H         1 <0>         0.0794
     70 H33        -3.2358    0.2367   -2.3659 H         1 <0>         0.0584
     71 H34        -3.4092   -0.7636   -0.9039 H         1 <0>         0.0650
     72 H35        -5.9728   -5.4008   -1.9340 H         1 <0>         0.3824
     73 H36        -1.4451   -5.1229   -0.5076 H         1 <0>         0.0620
     74 H37        -3.0377   -5.8584   -0.2063 H         1 <0>         0.0727
     75 H38        -2.3807   -5.8045   -1.8597 H         1 <0>         0.0584
@<TRIPOS>BOND
     1    1    2 1
     2    1   43 1
     3    1   44 1
     4    1   45 1
     5    2    3 2
     6    2    4 1
     7    4    5 1
     8    5    6 1
     9    5   13 1
    10    5    7 1
    11    7    8 1
    12    7   46 1
    13    7   47 1
    14    8    9 1
    15    8   38 1
    16    8   10 1
    17   10   11 1
    18   10   33 1
    19   10   42 1
    20   11   12 1
    21   11   25 1
    22   11   13 1
    23   13   14 1
    24   13   32 1
    25   14   15 1
    26   14   22 1
    27   14   16 1
    28   16   17 2
    29   16   18 1
    30   18   19 1
    31   19   20 1
    32   19   27 1
    33   19   28 1
    34   20   21 2
    35   20   22 1
    36   22   23 1
    37   22   26 1
    38   23   24 2
    39   23   25 1
    40   24   48 1
    41   24   49 1
    42   25   50 1
    43   25   51 1
    44   26   52 1
    45   26   53 1
    46   26   54 1
    47   27   55 1
    48   27   56 1
    49   27   57 1
    50   28   29 2
    51   28   30 1
    52   30   31 1
    53   31   58 1
    54   31   59 1
    55   31   60 1
    56   32   61 1
    57   32   62 1
    58   32   63 1
    59   33   34 1
    60   33   35 1
    61   33   41 1
    62   35   36 1
    63   35   64 1
    64   35   65 1
    65   36   37 2
    66   36   38 1
    67   38   39 1
    68   38   40 1
    69   39   66 1
    70   39   67 1
    71   39   68 1
    72   40   69 1
    73   40   70 1
    74   40   71 1
    75   41   72 1
    76   42   73 1
    77   42   74 1
    78   42   75 1
@<TRIPOS>MOLECULE
ZINC09234218
   63    67     0     0     0
SMALL
USER_CHARGES

@<TRIPOS>ATOM
      1 C1          3.2415    1.4831   -1.2485 C.3       1 <0>        -0.1537
      2 C2          3.3304   -0.0407   -1.3534 C.3       1 <0>         0.0517
      3 O1          2.0148   -0.5885   -1.4588 O.3       1 <0>        -0.3106
      4 C3          1.9155   -1.9405   -1.5609 C.ar      1 <0>         0.1492
      5 C4          3.0614   -2.7225   -1.5536 C.ar      1 <0>        -0.1993
      6 C5          2.9611   -4.0957   -1.6568 C.ar      1 <0>        -0.0539
      7 C6          1.7134   -4.6939   -1.7678 C.ar      1 <0>         0.0609
      8 C7          0.5670   -3.9111   -1.7750 C.ar      1 <0>        -0.0528
      9 C8          0.6681   -2.5382   -1.6665 C.ar      1 <0>        -0.1395
     10 N1          1.6109   -6.0896   -1.8731 N.am      1 <0>        -0.5148
     11 C9          2.0701   -6.7713   -2.9291 C.2       1 <0>         0.5389
     12 O2          2.6060   -6.2818   -3.9002 O.2       1 <0>        -0.4477
     13 C10         1.8164   -8.2465   -2.7222 C.3       1 <0>        -0.1724
     14 H1          2.7289   -8.8422   -2.7442 H         1 <0>         0.1518
     15 C11         0.7553   -8.7310   -3.7367 C.3       1 <0>         0.2077
     16 H2          0.2549   -7.8843   -4.2065 H         1 <0>         0.1320
     17 N2         -0.1890   -9.4923   -2.8830 N.pl3     1 <0>        -0.5173
     18 O3         -0.2683   -8.7366   -1.6734 O.3       1 <0>        -0.1145
     19 C12         1.0847   -8.2983   -1.3535 C.3       1 <0>         0.0386
     20 H3          1.5860   -8.9436   -0.6321 H         1 <0>         0.1461
     21 C13         1.0512   -6.8478   -0.9234 C.2       1 <0>         0.5339
     22 O4          0.5871   -6.4364    0.1183 O.2       1 <0>        -0.4359
     23 C14        -0.8526  -10.6817   -3.1927 C.ar      1 <0>         0.1991
     24 C15        -0.1269  -11.8106   -3.5512 C.ar      1 <0>        -0.1385
     25 C16        -0.7862  -12.9852   -3.8563 C.ar      1 <0>        -0.1068
     26 C17        -2.1671  -13.0380   -3.8058 C.ar      1 <0>        -0.1205
     27 C18        -2.8925  -11.9160   -3.4494 C.ar      1 <0>        -0.1036
     28 C19        -2.2394  -10.7398   -3.1374 C.ar      1 <0>        -0.1114
     29 C20         1.3799   -9.6243   -4.7773 C.ar      1 <0>        -0.0218
     30 C21         2.6182  -10.1941   -4.5441 C.ar      1 <0>        -0.1729
     31 C22         3.1937  -11.0154   -5.4996 C.ar      1 <0>         0.1617
     32 C23         2.5229  -11.2652   -6.6934 C.ar      1 <0>         0.1180
     33 C24         1.2828  -10.6914   -6.9207 C.ar      1 <0>        -0.1139
     34 C25         0.7114   -9.8769   -5.9603 C.ar      1 <0>        -0.0225
     35 N3         -0.6166   -9.2698   -6.2021 N.pl3     1 <0>         0.0405
     36 O5         -1.2326   -9.5433   -7.2058 O.2       1 <0>        -0.1529
     37 O6         -1.0854   -8.5004   -5.3959 O.3       1 <0>        -0.1481
     38 O7          3.0840  -12.0705   -7.6348 O.3       1 <0>        -0.2906
     39 C26         2.3385  -12.2821   -8.8354 C.3       1 <0>         0.0166
     40 O8          4.4116  -11.5761   -5.2720 O.3       1 <0>        -0.2868
     41 C27         5.0946  -11.1824   -4.0802 C.3       1 <0>         0.0149
     42 H4          2.7526    1.8807   -2.1379 H         1 <0>         0.0679
     43 H5          2.6635    1.7534   -0.3647 H         1 <0>         0.0679
     44 H6          4.2450    1.9010   -1.1680 H         1 <0>         0.0805
     45 H7          3.9084   -0.3109   -2.2371 H         1 <0>         0.0649
     46 H8          3.8193   -0.4382   -0.4639 H         1 <0>         0.0648
     47 H9          4.0322   -2.2570   -1.4676 H         1 <0>         0.1383
     48 H10         3.8532   -4.7044   -1.6514 H         1 <0>         0.1296
     49 H11        -0.4039   -4.3760   -1.8614 H         1 <0>         0.1370
     50 H12        -0.2240   -1.9294   -1.6680 H         1 <0>         0.1434
     51 H13         0.9515  -11.7698   -3.5915 H         1 <0>         0.1203
     52 H14        -0.2226  -13.8633   -4.1351 H         1 <0>         0.1267
     53 H15        -2.6802  -13.9576   -4.0457 H         1 <0>         0.1272
     54 H16        -3.9709  -11.9606   -3.4109 H         1 <0>         0.1303
     55 H17        -2.8063   -9.8651   -2.8548 H         1 <0>         0.1326
     56 H18         3.1367   -9.9984   -3.6172 H         1 <0>         0.1610
     57 H19         0.7605  -10.8833   -7.8463 H         1 <0>         0.1697
     58 H20         1.3799  -12.7402   -8.5918 H         1 <0>         0.0635
     59 H21         2.1690  -11.3263   -9.3310 H         1 <0>         0.0629
     60 H22         2.8980  -12.9414   -9.4990 H         1 <0>         0.1123
     61 H23         5.1897  -10.0968   -4.0577 H         1 <0>         0.0636
     62 H24         4.5286  -11.5156   -3.2102 H         1 <0>         0.0630
     63 H25         6.0862  -11.6345   -4.0634 H         1 <0>         0.1137
@<TRIPOS>BOND
     1    1    2 1
     2    1   42 1
     3    1   43 1
     4    1   44 1
     5    2    3 1
     6    2   45 1
     7    2   46 1
     8    3    4 1
     9    4    9 ar
    10    4    5 ar
    11    5    6 ar
    12    5   47 1
    13    6    7 ar
    14    6   48 1
    15    7    8 ar
    16    7   10 1
    17    8    9 ar
    18    8   49 1
    19    9   50 1
    20   10   21 am
    21   10   11 am
    22   11   12 2
    23   11   13 1
    24   13   14 1
    25   13   19 1
    26   13   15 1
    27   15   16 1
    28   15   17 1
    29   15   29 1
    30   17   18 1
    31   17   23 1
    32   18   19 1
    33   19   20 1
    34   19   21 1
    35   21   22 2
    36   23   28 ar
    37   23   24 ar
    38   24   25 ar
    39   24   51 1
    40   25   26 ar
    41   25   52 1
    42   26   27 ar
    43   26   53 1
    44   27   28 ar
    45   27   54 1
    46   28   55 1
    47   29   34 ar
    48   29   30 ar
    49   30   31 ar
    50   30   56 1
    51   31   32 ar
    52   31   40 1
    53   32   33 ar
    54   32   38 1
    55   33   34 ar
    56   33   57 1
    57   34   35 1
    58   35   36 2
    59   35   37 1
    60   38   39 1
    61   39   58 1
    62   39   59 1
    63   39   60 1
    64   40   41 1
    65   41   61 1
    66   41   62 1
    67   41   63 1
@<TRIPOS>MOLECULE
ZINC02253964
   60    63     0     0     0
SMALL
USER_CHARGES
3-amino-8-[2-(3,4-dimethoxyphenyl)ethyl]-9-methyl-5-(4-nitrophenyl)-7-oxo-2-oxa-8-azabicyclo[4.4.0]deca-3,9,11-triene-4-carbonitrile
@<TRIPOS>ATOM
      1 C1          5.8327   -1.0079   -1.4975 C.3       1 <0>        -0.1320
      2 C2          4.5987   -0.2244   -1.1307 C.2       1 <0>         0.2046
      3 C3          3.4347   -0.8755   -0.9205 C.2       1 <0>        -0.2340
      4 C4          2.2771   -0.1472   -0.5760 C.2       1 <0>         0.2291
      5 C5          2.3608    1.2243   -0.4607 C.2       1 <0>        -0.2779
      6 C6          3.5897    1.8567   -0.6888 C.2       1 <0>         0.5426
      7 O1          3.6785    3.0706   -0.5906 O.2       1 <0>        -0.5262
      8 N1          4.6729    1.1275   -1.0156 N.am      1 <0>        -0.4965
      9 C7          5.9518    1.8021   -1.2514 C.3       1 <0>         0.0920
     10 C8          6.7030    1.9487    0.0734 C.3       1 <0>        -0.0881
     11 C9          8.0186    2.6426   -0.1691 C.ar      1 <0>        -0.0843
     12 C10         9.1482    1.8988   -0.4557 C.ar      1 <0>        -0.1106
     13 C11        10.3561    2.5310   -0.6845 C.ar      1 <0>        -0.1711
     14 C12        10.4390    3.9125   -0.6158 C.ar      1 <0>         0.1013
     15 C13         9.3032    4.6608   -0.3218 C.ar      1 <0>         0.1037
     16 C14         8.0943    4.0212   -0.0991 C.ar      1 <0>        -0.1628
     17 O2          9.3793    6.0169   -0.2537 O.3       1 <0>        -0.3055
     18 C15         8.1734    6.7198    0.0523 C.3       1 <0>         0.0250
     19 O3         11.6276    4.5356   -0.8357 O.3       1 <0>        -0.3059
     20 C16        12.7511    3.7039   -1.1322 C.3       1 <0>         0.0256
     21 C17         1.1514    2.0400   -0.0939 C.3       1 <0>         0.1066
     22 H1          1.1081    2.9268   -0.7262 H         1 <0>         0.1076
     23 C18        -0.0990    1.2280   -0.2880 C.2       1 <0>        -0.2694
     24 C19        -0.0493   -0.1195   -0.4101 C.2       1 <0>         0.4384
     25 O4          1.1120   -0.7953   -0.3646 O.3       1 <0>        -0.2354
     26 N2         -1.2190   -0.8160   -0.5852 N.pl3     1 <0>        -0.8255
     27 C20        -1.3658    1.8929   -0.3506 C.1       1 <0>         0.2673
     28 N3         -2.3707    2.4203   -0.4003 N.1       1 <0>        -0.4314
     29 C21         1.2535    2.4631    1.3488 C.ar      1 <0>        -0.0161
     30 C22         1.3096    1.5083    2.3468 C.ar      1 <0>        -0.1063
     31 C23         1.4081    1.8963    3.6699 C.ar      1 <0>        -0.0544
     32 C24         1.4399    3.2393    3.9958 C.ar      1 <0>        -0.0476
     33 C25         1.3785    4.1942    2.9982 C.ar      1 <0>        -0.0517
     34 C26         1.2853    3.8061    1.6747 C.ar      1 <0>        -0.0973
     35 N4          1.5392    3.6549    5.4130 N.pl3     1 <0>         0.0289
     36 O5          1.5668    4.8382    5.7001 O.2       1 <0>        -0.1604
     37 O6          1.5933    2.8135    6.2920 O.3       1 <0>        -0.1619
     38 H2          6.6258   -0.7928   -0.7814 H         1 <0>         0.0917
     39 H3          5.6053   -2.0737   -1.4787 H         1 <0>         0.0986
     40 H4          6.1595   -0.7237   -2.4978 H         1 <0>         0.0938
     41 H5          3.3903   -1.9504   -1.0152 H         1 <0>         0.1635
     42 H6          6.5509    1.2128   -1.9455 H         1 <0>         0.0997
     43 H7          5.7691    2.7891   -1.6765 H         1 <0>         0.1061
     44 H8          6.1039    2.5380    0.7676 H         1 <0>         0.0829
     45 H9          6.8858    0.9617    0.4985 H         1 <0>         0.0795
     46 H10         9.0859    0.8217   -0.5052 H         1 <0>         0.1274
     47 H11        11.2361    1.9479   -0.9126 H         1 <0>         0.1371
     48 H12         7.2113    4.5996    0.1290 H         1 <0>         0.1377
     49 H13         7.4249    6.5065   -0.7108 H         1 <0>         0.0565
     50 H14         7.8022    6.3981    1.0253 H         1 <0>         0.0557
     51 H15         8.3733    7.7911    0.0757 H         1 <0>         0.1026
     52 H16        13.6331    4.3257   -1.2854 H         1 <0>         0.1019
     53 H17        12.9275    3.0215   -0.3007 H         1 <0>         0.0555
     54 H18        12.5496    3.1300   -2.0367 H         1 <0>         0.0554
     55 H19        -2.0649   -0.3426   -0.6197 H         1 <0>         0.4282
     56 H20        -1.1997   -1.7817   -0.6742 H         1 <0>         0.4140
     57 H21         1.2803    0.4590    2.0925 H         1 <0>         0.1374
     58 H22         1.4557    1.1502    4.4494 H         1 <0>         0.1524
     59 H23         1.4030    5.2435    3.2528 H         1 <0>         0.1538
     60 H24         1.2370    4.5522    0.8953 H         1 <0>         0.1483
@<TRIPOS>BOND
     1    1    2 1
     2    1   38 1
     3    1   39 1
     4    1   40 1
     5    2    8 1
     6    2    3 2
     7    3    4 1
     8    3   41 1
     9    4   25 1
    10    4    5 2
    11    5    6 1
    12    5   21 1
    13    6    7 2
    14    6    8 am
    15    8    9 1
    16    9   10 1
    17    9   42 1
    18    9   43 1
    19   10   11 1
    20   10   44 1
    21   10   45 1
    22   11   16 ar
    23   11   12 ar
    24   12   13 ar
    25   12   46 1
    26   13   14 ar
    27   13   47 1
    28   14   15 ar
    29   14   19 1
    30   15   16 ar
    31   15   17 1
    32   16   48 1
    33   17   18 1
    34   18   49 1
    35   18   50 1
    36   18   51 1
    37   19   20 1
    38   20   52 1
    39   20   53 1
    40   20   54 1
    41   21   22 1
    42   21   23 1
    43   21   29 1
    44   23   24 2
    45   23   27 1
    46   24   25 1
    47   24   26 1
    48   26   55 1
    49   26   56 1
    50   27   28 3
    51   29   34 ar
    52   29   30 ar
    53   30   31 ar
    54   30   57 1
    55   31   32 ar
    56   31   58 1
    57   32   33 ar
    58   32   35 1
    59   33   34 ar
    60   33   59 1
    61   34   60 1
    62   35   36 2
    63   35   37 1
@<TRIPOS>MOLECULE
ZINC12009008
   63    67     0     0     0
SMALL
USER_CHARGES
2-[(2,2-dimethyl-3H-benzofuran-7-yl)oxy]-N-[2-(5-ethyl-4-methyl-6-oxo-1H-pyrimidin-2-yl)-5-(2-furyl)pyrazol-3-yl]acetamide
@<TRIPOS>ATOM
      1 C1          5.2189   -0.9362   -6.3635 C.3       1 <0>        -0.1476
      2 C2          3.7102   -1.0058   -6.6083 C.3       1 <0>        -0.0569
      3 C3          3.0236   -1.5212   -5.3698 C.2       1 <0>        -0.2616
      4 C4          2.5031   -0.6551   -4.4536 C.2       1 <0>         0.2033
      5 N1          1.8939   -1.1213   -3.3648 N.2       1 <0>        -0.5756
      6 C5          1.7875   -2.4129   -3.1390 C.2       1 <0>         0.6518
      7 N2          2.2865   -3.3245   -4.0156 N.am      1 <0>        -0.6225
      8 H1          2.1955   -4.2733   -3.8354 H         1 <0>         0.4292
      9 C6          2.9087   -2.9048   -5.1380 C.2       1 <0>         0.5411
     10 O1          3.3620   -3.7089   -5.9357 O.2       1 <0>        -0.5146
     11 N3          1.1524   -2.8509   -1.9932 N.pl3     1 <0>        -0.3476
     12 C7          0.6040   -2.0575   -1.0256 C.2       1 <0>         0.3601
     13 C8          0.0758   -2.8705   -0.0765 C.2       1 <0>        -0.2453
     14 C9          0.3125   -4.2048   -0.4703 C.2       1 <0>         0.2175
     15 N4          0.9608   -4.1865   -1.6173 N.2       1 <0>        -0.2699
     16 C10        -0.0956   -5.4138    0.2753 C.2       1 <0>         0.0308
     17 C11         0.1273   -6.6996   -0.1063 C.2       1 <0>        -0.1433
     18 C12        -0.4244   -7.5220    0.8964 C.2       1 <0>        -0.2195
     19 C13        -0.9584   -6.7062    1.8264 C.2       1 <0>        -0.0055
     20 O2         -0.7580   -5.4332    1.4479 O.3       1 <0>        -0.1585
     21 N5          0.5851   -0.6645   -1.0180 N.am      1 <0>        -0.6353
     22 C14         0.0021   -0.0041    0.0020 C.2       1 <0>         0.5204
     23 O3         -0.5061   -0.6225    0.9133 O.2       1 <0>        -0.4707
     24 C15        -0.0184    1.5028    0.0103 C.3       1 <0>         0.0496
     25 O4         -0.6872    1.9636    1.1860 O.3       1 <0>        -0.2829
     26 C16        -0.7931    3.3097    1.3486 C.ar      1 <0>         0.1074
     27 C17        -0.2645    4.1637    0.3968 C.ar      1 <0>        -0.1774
     28 C18        -0.3669    5.5331    0.5551 C.ar      1 <0>        -0.1066
     29 C19        -0.9977    6.0510    1.6722 C.ar      1 <0>        -0.1028
     30 C20        -1.5239    5.2036    2.6235 C.ar      1 <0>        -0.1349
     31 C21        -1.4403    3.8270    2.4731 C.ar      1 <0>         0.0882
     32 O5         -2.0376    3.1796    3.5123 O.3       1 <0>        -0.2848
     33 C22        -2.1682    4.0839    4.6224 C.3       1 <0>         0.1000
     34 C23        -2.2472    5.4653    3.9305 C.3       1 <0>        -0.1025
     35 C24        -0.9422    4.0036    5.5342 C.3       1 <0>        -0.1631
     36 C25        -3.4495    3.7968    5.4077 C.3       1 <0>        -0.1426
     37 C26         2.6116    0.8313   -4.6769 C.3       1 <0>        -0.1110
     38 H2          5.7155   -0.5635   -7.2593 H         1 <0>         0.0625
     39 H3          5.4211   -0.2641   -5.5296 H         1 <0>         0.0532
     40 H4          5.5949   -1.9317   -6.1272 H         1 <0>         0.0565
     41 H5          3.5080   -1.6780   -7.4422 H         1 <0>         0.0801
     42 H6          3.3342   -0.0104   -6.8446 H         1 <0>         0.0798
     43 H7         -0.4350   -2.5531    0.8206 H         1 <0>         0.1981
     44 H8          0.6317   -7.0274   -1.0032 H         1 <0>         0.1578
     45 H9         -0.4225   -8.6018    0.9144 H         1 <0>         0.1578
     46 H10        -1.4633   -7.0232    2.7269 H         1 <0>         0.2134
     47 H11         0.9915   -0.1699   -1.7467 H         1 <0>         0.4319
     48 H12         1.0042    1.8801    0.0026 H         1 <0>         0.1030
     49 H13        -0.5455    1.8639   -0.8728 H         1 <0>         0.1031
     50 H14         0.2307    3.7585   -0.4734 H         1 <0>         0.1372
     51 H15         0.0439    6.1968   -0.1913 H         1 <0>         0.1340
     52 H16        -1.0782    7.1206    1.7989 H         1 <0>         0.1288
     53 H17        -1.7297    6.2247    4.5167 H         1 <0>         0.0955
     54 H18        -3.2832    5.7532    3.7514 H         1 <0>         0.0957
     55 H19        -1.0072    4.7771    6.2994 H         1 <0>         0.0756
     56 H20        -0.9070    3.0236    6.0102 H         1 <0>         0.0703
     57 H21        -0.0390    4.1528    4.9426 H         1 <0>         0.0622
     58 H22        -4.3012    3.8013    4.7275 H         1 <0>         0.0684
     59 H23        -3.3715    2.8204    5.8858 H         1 <0>         0.0707
     60 H24        -3.5886    4.5642    6.1692 H         1 <0>         0.0797
     61 H25         1.7403    1.1800   -5.2315 H         1 <0>         0.0927
     62 H26         2.6575    1.3409   -3.7145 H         1 <0>         0.0837
     63 H27         3.5154    1.0482   -5.2464 H         1 <0>         0.0921
@<TRIPOS>BOND
     1    1    2 1
     2    1   38 1
     3    1   39 1
     4    1   40 1
     5    2    3 1
     6    2   41 1
     7    2   42 1
     8    3    9 1
     9    3    4 2
    10    4    5 1
    11    4   37 1
    12    5    6 2
    13    6    7 1
    14    6   11 1
    15    7    8 1
    16    7    9 am
    17    9   10 2
    18   11   15 1
    19   11   12 1
    20   12   13 2
    21   12   21 1
    22   13   14 1
    23   13   43 1
    24   14   15 2
    25   14   16 1
    26   16   20 1
    27   16   17 2
    28   17   18 1
    29   17   44 1
    30   18   19 2
    31   18   45 1
    32   19   20 1
    33   19   46 1
    34   21   22 am
    35   21   47 1
    36   22   23 2
    37   22   24 1
    38   24   25 1
    39   24   48 1
    40   24   49 1
    41   25   26 1
    42   26   31 ar
    43   26   27 ar
    44   27   28 ar
    45   27   50 1
    46   28   29 ar
    47   28   51 1
    48   29   30 ar
    49   29   52 1
    50   30   34 1
    51   30   31 ar
    52   31   32 1
    53   32   33 1
    54   33   34 1
    55   33   35 1
    56   33   36 1
    57   34   53 1
    58   34   54 1
    59   35   55 1
    60   35   56 1
    61   35   57 1
    62   36   58 1
    63   36   59 1
    64   36   60 1
    65   37   61 1
    66   37   62 1
    67   37   63 1
@<TRIPOS>MOLECULE
ZINC20609522
   59    63     0     0     0
SMALL
USER_CHARGES
ethyl (E)-amino-(4-methoxyphenyl)-[(4-methoxyphenyl)methylene]-oxo-BLAHcarboxylate
@<TRIPOS>ATOM
      1 C1         -7.1103    0.3061   -2.1713 C.3       1 <0>        -0.1536
      2 C2         -6.0767    1.3968   -1.8837 C.3       1 <0>         0.0636
      3 O1         -4.8434    0.7923   -1.4892 O.3       1 <0>        -0.3511
      4 C3         -3.8189    1.6231   -1.1974 C.2       1 <0>         0.5280
      5 O2         -3.9712    2.8293   -1.2766 O.2       1 <0>        -0.4996
      6 C4         -2.5801    1.0972   -0.8034 C.2       1 <0>        -0.2448
      7 C5         -2.3907   -0.2594   -0.7087 C.2       1 <0>         0.4003
      8 N1         -1.1915   -0.7799   -0.3265 N.pl3     1 <0>        -0.4509
      9 C6         -1.3176   -2.1808   -0.3286 C.2       1 <0>        -0.0538
     10 C7         -0.3623   -3.0926   -0.0116 C.2       1 <0>         0.0280
     11 C8         -0.7114   -4.5147    0.0950 C.ar      1 <0>        -0.1358
     12 C9         -1.9034   -4.9008    0.7208 C.ar      1 <0>        -0.0168
     13 C10        -2.2284   -6.2354    0.8128 C.ar      1 <0>        -0.2112
     14 C11        -1.3705   -7.1996    0.2961 C.ar      1 <0>         0.1560
     15 C12        -0.1833   -6.8223   -0.3210 C.ar      1 <0>        -0.1600
     16 C13         0.1491   -5.4904   -0.4237 C.ar      1 <0>        -0.0404
     17 O3         -1.6936   -8.5146    0.3942 O.3       1 <0>        -0.3122
     18 C14        -2.9279   -8.8330    1.0401 C.3       1 <0>         0.0201
     19 C15        -2.6984   -2.4497   -0.7461 C.2       1 <0>         0.5234
     20 O4         -3.2191   -3.5412   -0.8776 O.2       1 <0>        -0.3830
     21 O5         -3.2760   -1.2521   -0.9549 O.3       1 <0>        -0.2250
     22 C16        -0.0815    0.0047   -0.0057 C.2       1 <0>         0.1363
     23 C17        -0.1283    1.3492   -0.0553 C.2       1 <0>         0.0589
     24 N2          1.0766    1.8256    0.3027 N.2       1 <0>        -0.4996
     25 C18         1.8607    0.8100    0.5703 C.2       1 <0>         0.4905
     26 O6          1.1700   -0.3284    0.3878 O.3       1 <0>        -0.2236
     27 N3          3.1816    0.8957    0.9742 N.pl3     1 <0>        -0.8211
     28 C19        -1.4227    2.0117   -0.4647 C.3       1 <0>         0.1200
     29 H1         -1.1921    2.5353   -1.4042 H         1 <0>         0.1073
     30 C20        -1.8516    2.9259    0.6539 C.ar      1 <0>        -0.0995
     31 C21        -2.1037    2.4075    1.9107 C.ar      1 <0>        -0.0649
     32 C22        -2.4916    3.2442    2.9392 C.ar      1 <0>        -0.2095
     33 C23        -2.6395    4.6040    2.7073 C.ar      1 <0>         0.1288
     34 C24        -2.3914    5.1208    1.4440 C.ar      1 <0>        -0.1503
     35 C25        -1.9979    4.2808    0.4203 C.ar      1 <0>        -0.0370
     36 O7         -3.0272    5.4283    3.7159 O.3       1 <0>        -0.3176
     37 C26        -3.2651    4.8268    4.9901 C.3       1 <0>         0.0246
     38 H2         -8.0596    0.7715   -2.4750 H         1 <0>         0.0794
     39 H3         -7.2704   -0.2956   -1.2645 H         1 <0>         0.0656
     40 H4         -6.7439   -0.3418   -2.9813 H         1 <0>         0.0663
     41 H5         -5.9166    1.9985   -2.7905 H         1 <0>         0.0684
     42 H6         -6.4430    2.0447   -1.0738 H         1 <0>         0.0677
     43 H7          0.6730   -2.7656    0.1653 H         1 <0>         0.1539
     44 H8         -2.5683   -4.1528    1.1268 H         1 <0>         0.1228
     45 H9         -3.1493   -6.5341    1.2915 H         1 <0>         0.1347
     46 H10         0.4796   -7.5756   -0.7203 H         1 <0>         0.1384
     47 H11         1.0714   -5.1984   -0.9036 H         1 <0>         0.1365
     48 H12        -3.0651   -9.9244    1.0511 H         1 <0>         0.1058
     49 H13        -3.7594   -8.3643    0.4933 H         1 <0>         0.0609
     50 H14        -2.9092   -8.4554    2.0731 H         1 <0>         0.0596
     51 H15         3.7560   -0.0207    1.1747 H         1 <0>         0.4429
     52 H16         3.6571    1.8803    1.0947 H         1 <0>         0.4649
     53 H17        -1.9933    1.3481    2.0894 H         1 <0>         0.1095
     54 H18        -2.6844    2.8394    3.9217 H         1 <0>         0.1245
     55 H19        -2.5062    6.1790    1.2608 H         1 <0>         0.1310
     56 H20        -1.8047    4.6827   -0.5633 H         1 <0>         0.1317
     57 H21        -3.5702    5.6008    5.7097 H         1 <0>         0.1011
     58 H22        -2.3441    4.3402    5.3435 H         1 <0>         0.0549
     59 H23        -4.0641    4.0764    4.8979 H         1 <0>         0.0551
@<TRIPOS>BOND
     1    1    2 1
     2    1   38 1
     3    1   39 1
     4    1   40 1
     5    2    3 1
     6    2   41 1
     7    2   42 1
     8    3    4 1
     9    4    5 2
    10    4    6 1
    11    6   28 1
    12    6    7 2
    13    7   21 1
    14    7    8 1
    15    8    9 1
    16    8   22 1
    17    9   10 2
    18    9   19 1
    19   10   11 1
    20   10   43 1
    21   11   16 ar
    22   11   12 ar
    23   12   13 ar
    24   12   44 1
    25   13   14 ar
    26   13   45 1
    27   14   15 ar
    28   14   17 1
    29   15   16 ar
    30   15   46 1
    31   16   47 1
    32   17   18 1
    33   18   48 1
    34   18   49 1
    35   18   50 1
    36   19   20 2
    37   19   21 1
    38   22   26 1
    39   22   23 2
    40   23   24 1
    41   23   28 1
    42   24   25 2
    43   25   26 1
    44   25   27 1
    45   27   51 1
    46   27   52 1
    47   28   29 1
    48   28   30 1
    49   30   35 ar
    50   30   31 ar
    51   31   32 ar
    52   31   53 1
    53   32   33 ar
    54   32   54 1
    55   33   34 ar
    56   33   36 1
    57   34   35 ar
    58   34   55 1
    59   35   56 1
    60   36   37 1
    61   37   57 1
    62   37   58 1
    63   37   59 1
@<TRIPOS>MOLECULE
ZINC39826523
   58    62     0     0     0
SMALL
USER_CHARGES

@<TRIPOS>ATOM
      1 C1          0.3431    0.7463   -1.4083 C.3       1 <0>        -0.2018
      2 C2          0.2188   -0.7199   -1.0828 C.2       1 <0>         0.3632
      3 O1          0.2894   -1.0919    0.0639 O.2       1 <0>        -0.4316
      4 C3          0.0064   -1.7218   -2.1883 C.3       1 <0>        -0.2157
      5 H1         -0.5410   -1.2550   -3.0071 H         1 <0>         0.1371
      6 C4         -0.7880   -2.9243   -1.6526 C.3       1 <0>         0.2057
      7 H2         -1.7850   -2.6359   -1.3195 H         1 <0>         0.1346
      8 C5         -0.8396   -3.9752   -2.7398 C.ar      1 <0>        -0.1951
      9 C6         -1.8691   -4.8989   -2.7285 C.ar      1 <0>        -0.0574
     10 C7         -1.9354   -5.8767   -3.7027 C.ar      1 <0>        -0.1516
     11 C8         -0.9694   -5.9318   -4.6907 C.ar      1 <0>        -0.0688
     12 C9          0.0562   -5.0095   -4.7073 C.ar      1 <0>        -0.1470
     13 C10         0.1236   -4.0183   -3.7313 C.ar      1 <0>         0.1467
     14 O2          1.1325   -3.1132   -3.8008 O.3       1 <0>        -0.2956
     15 C11         1.3618   -2.2277   -2.6947 C.3       1 <0>         0.2987
     16 N1          2.0824   -2.8916   -1.6038 N.2       1 <0>        -0.5171
     17 C12         1.4129   -3.4380   -0.6437 C.2       1 <0>         0.3784
     18 N2          0.0258   -3.5008   -0.5409 N.am      1 <0>        -0.5724
     19 C13        -0.5053   -4.0692    0.5387 C.2       1 <0>         0.5627
     20 O3         -1.7114   -4.1165    0.6943 O.2       1 <0>        -0.4934
     21 C14         0.4132   -4.6401    1.5395 C.2       1 <0>        -0.2164
     22 C15         0.1297   -5.2744    2.7049 C.2       1 <0>         0.0665
     23 C16         1.2043   -5.9206    3.4697 C.ar      1 <0>        -0.0855
     24 C17         2.4858   -6.0379    2.9184 C.ar      1 <0>        -0.0781
     25 C18         3.4919   -6.6440    3.6383 C.ar      1 <0>        -0.1722
     26 C19         3.2386   -7.1400    4.9102 C.ar      1 <0>         0.1274
     27 C20         1.9651   -7.0276    5.4662 C.ar      1 <0>         0.1074
     28 C21         0.9517   -6.4160    4.7546 C.ar      1 <0>        -0.1359
     29 O4          1.7220   -7.5155    6.7122 O.3       1 <0>        -0.2985
     30 C22         0.3945   -7.3662    7.2197 C.3       1 <0>         0.0220
     31 O5          4.2350   -7.7372    5.6149 O.3       1 <0>        -0.2720
     32 C23         5.5154   -7.8194    4.9858 C.3       1 <0>         0.0335
     33 C24         6.4862   -8.5075    5.9105 C.2       1 <0>         0.5194
     34 O6          6.1179   -8.8899    7.0009 O.2       1 <0>        -0.5131
     35 N3          7.7638   -8.6980    5.5257 N.am      1 <0>        -0.8500
     36 S1          2.0047   -4.2728    0.8039 S.3       1 <0>         0.0979
     37 C25         2.1970   -1.0376   -3.1710 C.3       1 <0>        -0.1283
     38 H3          1.3903    0.9919   -1.5844 H         1 <0>         0.1045
     39 H4         -0.2381    0.9704   -2.3028 H         1 <0>         0.0903
     40 H5         -0.0332    1.3371   -0.5731 H         1 <0>         0.0931
     41 H6         -2.6228   -4.8561   -1.9561 H         1 <0>         0.1306
     42 H7         -2.7405   -6.5965   -3.6927 H         1 <0>         0.1307
     43 H8         -1.0177   -6.6982   -5.4501 H         1 <0>         0.1351
     44 H9          0.8096   -5.0564   -5.4797 H         1 <0>         0.1365
     45 H10        -0.8863   -5.3042    3.0702 H         1 <0>         0.1619
     46 H11         2.6856   -5.6536    1.9290 H         1 <0>         0.1325
     47 H12         4.4801   -6.7340    3.2121 H         1 <0>         0.1455
     48 H13        -0.0340   -6.3244    5.1861 H         1 <0>         0.1486
     49 H14         0.3372   -7.7966    8.2195 H         1 <0>         0.1051
     50 H15         0.1398   -6.3073    7.2649 H         1 <0>         0.0582
     51 H16        -0.3060   -7.8807    6.5619 H         1 <0>         0.0582
     52 H17         5.4296   -8.3886    4.0602 H         1 <0>         0.0984
     53 H18         5.8757   -6.8152    4.7626 H         1 <0>         0.0987
     54 H19         8.0584   -8.3922    4.6536 H         1 <0>         0.4038
     55 H20         8.3886   -9.1409    6.1209 H         1 <0>         0.4107
     56 H21         2.3509   -0.3467   -2.3420 H         1 <0>         0.0829
     57 H22         3.1622   -1.3924   -3.5322 H         1 <0>         0.0883
     58 H23         1.6728   -0.5257   -3.9780 H         1 <0>         0.0825
@<TRIPOS>BOND
     1    1    2 1
     2    1   38 1
     3    1   39 1
     4    1   40 1
     5    2    3 2
     6    2    4 1
     7    4    5 1
     8    4   15 1
     9    4    6 1
    10    6    7 1
    11    6   18 1
    12    6    8 1
    13    8   13 ar
    14    8    9 ar
    15    9   10 ar
    16    9   41 1
    17   10   11 ar
    18   10   42 1
    19   11   12 ar
    20   11   43 1
    21   12   13 ar
    22   12   44 1
    23   13   14 1
    24   14   15 1
    25   15   16 1
    26   15   37 1
    27   16   17 2
    28   17   36 1
    29   17   18 1
    30   18   19 am
    31   19   20 2
    32   19   21 1
    33   21   22 2
    34   21   36 1
    35   22   23 1
    36   22   45 1
    37   23   28 ar
    38   23   24 ar
    39   24   25 ar
    40   24   46 1
    41   25   26 ar
    42   25   47 1
    43   26   27 ar
    44   26   31 1
    45   27   28 ar
    46   27   29 1
    47   28   48 1
    48   29   30 1
    49   30   49 1
    50   30   50 1
    51   30   51 1
    52   31   32 1
    53   32   33 1
    54   32   52 1
    55   32   53 1
    56   33   34 2
    57   33   35 am
    58   35   54 1
    59   35   55 1
    60   37   56 1
    61   37   57 1
    62   37   58 1
@<TRIPOS>MOLECULE
ZINC09613201
   50    52     0     0     0
SMALL
USER_CHARGES

@<TRIPOS>ATOM
      1 C1         -0.0126    1.3748   -0.1792 C.ar      1 <0>        -0.1169
      2 C2          1.1745    2.0810   -0.1820 C.ar      1 <0>        -0.0645
      3 C3          2.3796    1.4110   -0.0183 C.ar      1 <0>         0.1269
      4 C4          2.3872    0.0321    0.1478 C.ar      1 <0>        -0.0412
      5 C5          1.1970   -0.6681    0.1498 C.ar      1 <0>        -0.6224
      6 C6         -0.0017    0.0022   -0.0136 C.ar      1 <0>        -0.0299
      7 S1          1.2055   -2.4175    0.3599 S.o2      1 <0>         2.6442
      8 O1          0.0026   -2.9022   -0.2210 O.2       1 <0>        -0.9779
      9 O2          2.4874   -2.8700   -0.0537 O.2       1 <0>        -0.9721
     10 N1          1.0999   -2.7160    1.9853 N.2       1 <0>        -0.9951
     11 C7          1.0865   -3.9341    2.4196 C.2       1 <0>         0.5694
     12 C8          1.1741   -5.0984    1.4358 C.3       1 <0>        -0.1680
     13 C9          2.5270   -5.7492    1.6292 C.3       1 <0>        -0.1197
     14 C10         2.5307   -6.8398    2.7020 C.3       1 <0>        -0.1204
     15 C11         1.7477   -6.4497    3.9561 C.3       1 <0>        -0.1512
     16 C12         1.9991   -5.0242    4.3974 C.3       1 <0>         0.1281
     17 N2          1.0025   -4.1736    3.7133 N.pl3     1 <0>        -0.7275
     18 N3          3.5839    2.1235   -0.0212 N.am      1 <0>        -0.6683
     19 C13         3.6280    3.3746    0.4780 C.2       1 <0>         0.5166
     20 O3          2.6493    3.8477    1.0159 O.2       1 <0>        -0.4900
     21 C14         4.8932    4.1858    0.3677 C.3       1 <0>         0.0495
     22 O4          4.6909    5.4677    0.9659 O.3       1 <0>        -0.3165
     23 C15         5.7348    6.3221    0.9511 C.2       1 <0>         0.5592
     24 O5          6.7881    5.9867    0.4436 O.2       1 <0>        -0.4739
     25 C16         5.5999    7.6527    1.5457 C.2       1 <0>        -0.0454
     26 C17         6.5713    8.6133    1.5937 C.2       1 <0>        -0.0943
     27 C18         6.0118    9.7207    2.2470 C.2       1 <0>        -0.1689
     28 C19         4.7379    9.3934    2.5665 C.2       1 <0>         0.0129
     29 O6          4.4926    8.1485    2.1375 O.3       1 <0>        -0.1304
     30 Br1         3.5054   10.5119    3.4641 Br        1 <0>         0.0757
     31 H1         -0.9506    1.8959   -0.3019 H         1 <0>         0.1414
     32 H2          1.1654    3.1532   -0.3118 H         1 <0>         0.1449
     33 H3          3.3229   -0.4920    0.2751 H         1 <0>         0.1450
     34 H4         -0.9312   -0.5478   -0.0118 H         1 <0>         0.1437
     35 H5          0.3829   -5.8191    1.6425 H         1 <0>         0.1194
     36 H6          1.0829   -4.7288    0.4145 H         1 <0>         0.0831
     37 H7          2.8413   -6.1893    0.6828 H         1 <0>         0.0831
     38 H8          3.2472   -4.9807    1.9100 H         1 <0>         0.0705
     39 H9          2.0925   -7.7455    2.2827 H         1 <0>         0.0700
     40 H10         3.5622   -7.0505    2.9841 H         1 <0>         0.0709
     41 H11         0.6832   -6.5716    3.7562 H         1 <0>         0.0740
     42 H12         2.0282   -7.1218    4.7671 H         1 <0>         0.0784
     43 H13         1.8795   -4.9430    5.4778 H         1 <0>         0.0993
     44 H14         3.0050   -4.7181    4.1099 H         1 <0>         0.0783
     45 H15         0.2752   -3.7875    4.2260 H         1 <0>         0.4148
     46 H16         4.3871    1.7169   -0.3824 H         1 <0>         0.4176
     47 H17         5.7026    3.6682    0.8826 H         1 <0>         0.1110
     48 H18         5.1533    4.3122   -0.6833 H         1 <0>         0.1123
     49 H19         7.5755    8.5345    1.2041 H         1 <0>         0.1778
     50 H20         6.5049   10.6585    2.4564 H         1 <0>         0.1761
@<TRIPOS>BOND
     1    1    6 ar
     2    1    2 ar
     3    1   31 1
     4    2    3 ar
     5    2   32 1
     6    3    4 ar
     7    3   18 1
     8    4    5 ar
     9    4   33 1
    10    5    6 ar
    11    5    7 1
    12    6   34 1
    13    7    8 2
    14    7    9 2
    15    7   10 1
    16   10   11 2
    17   11   17 1
    18   11   12 1
    19   12   13 1
    20   12   35 1
    21   12   36 1
    22   13   14 1
    23   13   37 1
    24   13   38 1
    25   14   15 1
    26   14   39 1
    27   14   40 1
    28   15   16 1
    29   15   41 1
    30   15   42 1
    31   16   17 1
    32   16   43 1
    33   16   44 1
    34   17   45 1
    35   18   19 am
    36   18   46 1
    37   19   20 2
    38   19   21 1
    39   21   22 1
    40   21   47 1
    41   21   48 1
    42   22   23 1
    43   23   24 2
    44   23   25 1
    45   25   29 1
    46   25   26 2
    47   26   27 1
    48   26   49 1
    49   27   28 2
    50   27   50 1
    51   28   29 1
    52   28   30 1
@<TRIPOS>MOLECULE
ZINC09459951
   64    68     0     0     0
SMALL
USER_CHARGES
6-amino-1-benzyl-5-[methyl-[(9-phenyl-7-oxa-10-azabicyclo[4.4.0]deca-2,4,11-trien-10-yl)carbonylmethyl]amino]-pyrimidine-2,4-dione
@<TRIPOS>ATOM
      1 C1         -0.9312    5.9290   -4.9628 C.3       1 <0>         0.0174
      2 N1         -1.5327    7.0850   -4.2847 N.pl3     1 <0>        -0.4302
      3 C2         -2.0559    6.7075   -2.9650 C.3       1 <0>         0.0369
      4 C3         -0.9125    6.3183   -2.0638 C.2       1 <0>         0.5271
      5 O1          0.2315    6.4441   -2.4468 O.2       1 <0>        -0.4956
      6 N2         -1.1610    5.8304   -0.8323 N.am      1 <0>        -0.5492
      7 C4         -0.1190    5.3772   -0.0027 C.ar      1 <0>         0.0809
      8 C5          1.1971    5.6794   -0.3136 C.ar      1 <0>        -0.1204
      9 C6          2.2186    5.2266    0.5006 C.ar      1 <0>        -0.1296
     10 C7          1.9275    4.4731    1.6229 C.ar      1 <0>        -0.1055
     11 C8          0.6165    4.1704    1.9386 C.ar      1 <0>        -0.1296
     12 C9         -0.4150    4.6215    1.1284 C.ar      1 <0>         0.0918
     13 O2         -1.7015    4.3218    1.4479 O.3       1 <0>        -0.3023
     14 C10        -2.6816    4.4017    0.4103 C.3       1 <0>         0.0585
     15 C11        -2.5348    5.7515   -0.3065 C.3       1 <0>         0.1361
     16 H1         -3.2492    5.8140   -1.1275 H         1 <0>         0.1208
     17 C12        -2.7752    6.8764    0.6670 C.ar      1 <0>        -0.1065
     18 C13        -3.9947    7.5271    0.6839 C.ar      1 <0>        -0.1056
     19 C14        -4.2154    8.5587    1.5772 C.ar      1 <0>        -0.1199
     20 C15        -3.2164    8.9399    2.4533 C.ar      1 <0>        -0.1109
     21 C16        -1.9949    8.2930    2.4325 C.ar      1 <0>        -0.1183
     22 C17        -1.7760    7.2579    1.5428 C.ar      1 <0>        -0.0942
     23 C18        -2.5433    7.6708   -5.0819 C.2       1 <0>        -0.2255
     24 C19        -2.4067    8.9508   -5.5463 C.2       1 <0>         0.5178
     25 N3         -3.4022    9.4960   -6.3250 N.am      1 <0>        -0.5383
     26 C20        -4.5043    8.7820   -6.6187 C.2       1 <0>         0.7134
     27 O3         -5.3758    9.2814   -7.3043 O.2       1 <0>        -0.5331
     28 N4         -4.6575    7.5246   -6.1656 N.am      1 <0>        -0.6650
     29 H2         -5.4851    7.0126   -6.3957 H         1 <0>         0.4362
     30 C21        -3.7062    6.9486   -5.4046 C.2       1 <0>         0.5513
     31 O4         -3.8526    5.8079   -4.9985 O.2       1 <0>        -0.5340
     32 C22        -3.2636   10.8633   -6.8324 C.3       1 <0>         0.1481
     33 C23        -3.8505   11.8304   -5.8368 C.ar      1 <0>        -0.1279
     34 C24        -5.1835   12.1865   -5.9223 C.ar      1 <0>        -0.0866
     35 C25        -5.7232   13.0695   -5.0059 C.ar      1 <0>        -0.1205
     36 C26        -4.9272   13.6050   -4.0106 C.ar      1 <0>        -0.1044
     37 C27        -3.5929   13.2534   -3.9285 C.ar      1 <0>        -0.1203
     38 C28        -3.0546   12.3659   -4.8415 C.ar      1 <0>        -0.1021
     39 N5         -1.2825    9.6839   -5.2422 N.pl3     1 <0>        -0.8198
     40 H3         -1.6847    5.1525   -5.0946 H         1 <0>         0.0432
     41 H4         -0.5518    6.2363   -5.9374 H         1 <0>         0.0663
     42 H5         -0.1106    5.5404   -4.3596 H         1 <0>         0.0824
     43 H6         -2.7376    5.8637   -3.0721 H         1 <0>         0.0875
     44 H7         -2.5896    7.5527   -2.5304 H         1 <0>         0.1027
     45 H8          1.4245    6.2679   -1.1902 H         1 <0>         0.1728
     46 H9          3.2449    5.4614    0.2597 H         1 <0>         0.1278
     47 H10         2.7282    4.1201    2.2560 H         1 <0>         0.1294
     48 H11         0.3950    3.5819    2.8167 H         1 <0>         0.1343
     49 H12        -3.6789    4.3246    0.8432 H         1 <0>         0.1250
     50 H13        -2.5266    3.5912   -0.3018 H         1 <0>         0.0774
     51 H14        -4.7752    7.2293   -0.0006 H         1 <0>         0.1237
     52 H15        -5.1682    9.0671    1.5904 H         1 <0>         0.1246
     53 H16        -3.3887    9.7461    3.1511 H         1 <0>         0.1232
     54 H17        -1.2129    8.5938    3.1140 H         1 <0>         0.1228
     55 H18        -0.8231    6.7498    1.5294 H         1 <0>         0.1271
     56 H19        -2.2079   11.0905   -6.9807 H         1 <0>         0.1008
     57 H20        -3.7916   10.9539   -7.7816 H         1 <0>         0.1210
     58 H21        -5.8043   11.7715   -6.7026 H         1 <0>         0.1327
     59 H22        -6.7658   13.3440   -5.0698 H         1 <0>         0.1268
     60 H23        -5.3480   14.2978   -3.2969 H         1 <0>         0.1255
     61 H24        -2.9710   13.6717   -3.1509 H         1 <0>         0.1260
     62 H25        -2.0121   12.0912   -4.7774 H         1 <0>         0.1179
     63 H26        -0.5820    9.2938   -4.6963 H         1 <0>         0.4364
     64 H27        -1.1905   10.5909   -5.5738 H         1 <0>         0.4016
@<TRIPOS>BOND
     1    1    2 1
     2    1   40 1
     3    1   41 1
     4    1   42 1
     5    2    3 1
     6    2   23 1
     7    3    4 1
     8    3   43 1
     9    3   44 1
    10    4    5 2
    11    4    6 am
    12    6   15 1
    13    6    7 1
    14    7   12 ar
    15    7    8 ar
    16    8    9 ar
    17    8   45 1
    18    9   10 ar
    19    9   46 1
    20   10   11 ar
    21   10   47 1
    22   11   12 ar
    23   11   48 1
    24   12   13 1
    25   13   14 1
    26   14   15 1
    27   14   49 1
    28   14   50 1
    29   15   16 1
    30   15   17 1
    31   17   22 ar
    32   17   18 ar
    33   18   19 ar
    34   18   51 1
    35   19   20 ar
    36   19   52 1
    37   20   21 ar
    38   20   53 1
    39   21   22 ar
    40   21   54 1
    41   22   55 1
    42   23   30 1
    43   23   24 2
    44   24   25 1
    45   24   39 1
    46   25   26 am
    47   25   32 1
    48   26   27 2
    49   26   28 am
    50   28   29 1
    51   28   30 am
    52   30   31 2
    53   32   33 1
    54   32   56 1
    55   32   57 1
    56   33   38 ar
    57   33   34 ar
    58   34   35 ar
    59   34   58 1
    60   35   36 ar
    61   35   59 1
    62   36   37 ar
    63   36   60 1
    64   37   38 ar
    65   37   61 1
    66   38   62 1
    67   39   63 1
    68   39   64 1
@<TRIPOS>MOLECULE
ZINC14083649
   58    62     0     0     0
SMALL
USER_CHARGES
3-[[3-(1,3-benzodioxol-5-ylmethylsulfamoyl)benzoyl]amino]-N-cyclopropyl-benzamide
@<TRIPOS>ATOM
      1 C1          2.1214    9.5315    0.3266 C.ar      1 <0>        -0.1038
      2 C2          1.0527   10.1779   -0.2610 C.ar      1 <0>        -0.1003
      3 C3         -0.0202    9.4390   -0.7619 C.ar      1 <0>        -0.1144
      4 C4         -0.0053    8.0471   -0.6710 C.ar      1 <0>        -0.0606
      5 C5          1.0701    7.4077   -0.0744 C.ar      1 <0>         0.1395
      6 C6          2.1338    8.1528    0.4214 C.ar      1 <0>        -0.1172
      7 N1          1.0878    6.0124    0.0235 N.am      1 <0>        -0.6701
      8 C7         -0.0639    5.3346    0.1986 C.2       1 <0>         0.5588
      9 O1         -1.1051    5.9388    0.3676 O.2       1 <0>        -0.4991
     10 C8         -0.0609    3.8565    0.1852 C.ar      1 <0>        -0.1556
     11 C9          1.1332    3.1596   -0.0086 C.ar      1 <0>        -0.0308
     12 C10         1.1290    1.7803   -0.0196 C.ar      1 <0>        -0.1417
     13 C11        -0.0552    1.0874    0.1605 C.ar      1 <0>         0.0109
     14 C12        -1.2428    1.7719    0.3473 C.ar      1 <0>        -0.6853
     15 C13        -1.2517    3.1515    0.3667 C.ar      1 <0>         0.0403
     16 S1         -2.7462    0.8799    0.5679 S.o2      1 <0>         2.6942
     17 O2         -3.7974    1.7532    0.1785 O.2       1 <0>        -0.9443
     18 O3         -2.5538   -0.3946   -0.0302 O.2       1 <0>        -0.9498
     19 N2         -2.9261    0.6178    2.1931 N.pl3     1 <0>        -1.1121
     20 C14        -3.1190    1.7513    3.1009 C.3       1 <0>         0.1603
     21 C15        -3.6171    1.2498    4.4319 C.ar      1 <0>        -0.0947
     22 C16        -4.9756    1.1382    4.6624 C.ar      1 <0>        -0.0856
     23 C17        -5.4373    0.6734    5.8797 C.ar      1 <0>        -0.1006
     24 C18        -4.5386    0.3294    6.8765 C.ar      1 <0>         0.0418
     25 C19        -3.1702    0.4469    6.6462 C.ar      1 <0>         0.0293
     26 C20        -2.7146    0.9078    5.4216 C.ar      1 <0>        -0.0830
     27 O4         -2.5031    0.0507    7.7693 O.3       1 <0>        -0.3077
     28 C21        -3.4802    0.0783    8.8265 C.3       1 <0>         0.2128
     29 O5         -4.7290   -0.1404    8.1439 O.3       1 <0>        -0.3073
     30 C22        -1.1661   10.1290   -1.3922 C.2       1 <0>         0.5628
     31 O6         -2.0994    9.4835   -1.8278 O.2       1 <0>        -0.5242
     32 N3         -1.1756   11.4736   -1.4838 N.am      1 <0>        -0.6989
     33 C23        -2.3109   12.1572   -2.1083 C.3       1 <0>         0.0775
     34 C24        -2.0013   13.3002   -3.0771 C.3       1 <0>        -0.1918
     35 C25        -2.5788   13.6053   -1.6935 C.3       1 <0>        -0.1877
     36 H1          2.9508   10.1050    0.7133 H         1 <0>         0.1366
     37 H2          1.0469   11.2555   -0.3334 H         1 <0>         0.1279
     38 H3         -0.8307    7.4698   -1.0608 H         1 <0>         0.1507
     39 H4          2.9729    7.6525    0.8818 H         1 <0>         0.1329
     40 H5          1.9288    5.5328   -0.0346 H         1 <0>         0.4119
     41 H6          2.0581    3.6992   -0.1493 H         1 <0>         0.1358
     42 H7          2.0520    1.2399   -0.1695 H         1 <0>         0.1445
     43 H8         -0.0530    0.0074    0.1506 H         1 <0>         0.1493
     44 H9         -2.1789    3.6847    0.5167 H         1 <0>         0.1574
     45 H10        -2.9038   -0.2862    2.5439 H         1 <0>         0.4232
     46 H11        -2.1709    2.2708    3.2401 H         1 <0>         0.0785
     47 H12        -3.8503    2.4379    2.6746 H         1 <0>         0.0983
     48 H13        -5.6777    1.4107    3.8883 H         1 <0>         0.1451
     49 H14        -6.4990    0.5833    6.0556 H         1 <0>         0.1404
     50 H15        -1.6539    0.9995    5.2401 H         1 <0>         0.1381
     51 H16        -3.4800    1.0486    9.3231 H         1 <0>         0.0867
     52 H17        -3.2922   -0.7189    9.5458 H         1 <0>         0.1342
     53 H18        -0.4308   11.9887   -1.1362 H         1 <0>         0.4011
     54 H19        -3.1739   11.5292   -2.3297 H         1 <0>         0.1403
     55 H20        -0.9530   13.5436   -3.2497 H         1 <0>         0.0975
     56 H21        -2.6606   13.4244   -3.9361 H         1 <0>         0.1044
     57 H22        -3.6180   13.9301   -1.6423 H         1 <0>         0.1058
     58 H23        -1.9106   14.0492   -0.9556 H         1 <0>         0.0979
@<TRIPOS>BOND
     1    1    6 ar
     2    1    2 ar
     3    1   36 1
     4    2    3 ar
     5    2   37 1
     6    3    4 ar
     7    3   30 1
     8    4    5 ar
     9    4   38 1
    10    5    6 ar
    11    5    7 1
    12    6   39 1
    13    7    8 am
    14    7   40 1
    15    8    9 2
    16    8   10 1
    17   10   15 ar
    18   10   11 ar
    19   11   12 ar
    20   11   41 1
    21   12   13 ar
    22   12   42 1
    23   13   14 ar
    24   13   43 1
    25   14   15 ar
    26   14   16 1
    27   15   44 1
    28   16   17 2
    29   16   18 2
    30   16   19 1
    31   19   20 1
    32   19   45 1
    33   20   21 1
    34   20   46 1
    35   20   47 1
    36   21   26 ar
    37   21   22 ar
    38   22   23 ar
    39   22   48 1
    40   23   24 ar
    41   23   49 1
    42   24   29 1
    43   24   25 ar
    44   25   26 ar
    45   25   27 1
    46   26   50 1
    47   27   28 1
    48   28   29 1
    49   28   51 1
    50   28   52 1
    51   30   31 2
    52   30   32 am
    53   32   33 1
    54   32   53 1
    55   33   35 1
    56   33   34 1
    57   33   54 1
    58   34   35 1
    59   34   55 1
    60   34   56 1
    61   35   57 1
    62   35   58 1
@<TRIPOS>MOLECULE
ZINC21999047
   56    59     0     0     0
SMALL
USER_CHARGES
6-amino-1-benzyl-3-ethyl-5-[2-[(6-methoxy-1H-benzimidazol-2-yl)sulfanyl]acetyl]pyrimidine-2,4-dione
@<TRIPOS>ATOM
      1 C1          5.3940   -4.6694    9.4643 C.3       1 <0>        -0.1679
      2 C2          5.9425   -3.2554    9.6656 C.3       1 <0>         0.1053
      3 N1          5.0487   -2.5066   10.5525 N.am      1 <0>        -0.5555
      4 C3          4.0263   -1.8012   10.0264 C.2       1 <0>         0.5773
      5 O1          3.8393   -1.7811    8.8238 O.2       1 <0>        -0.4974
      6 C4          3.1469   -1.0535   10.9343 C.2       1 <0>        -0.4627
      7 C5          3.4134   -1.1236   12.3128 C.2       1 <0>         0.5709
      8 N2          4.4714   -1.8720   12.7437 N.am      1 <0>        -0.5397
      9 C6          5.2543   -2.5361   11.8793 C.2       1 <0>         0.7142
     10 O2          6.1839   -3.1880   12.3132 O.2       1 <0>        -0.5247
     11 C7          4.7577   -1.9510   14.1783 C.3       1 <0>         0.1393
     12 C8          4.0090   -3.1140   14.7766 C.ar      1 <0>        -0.1295
     13 C9          2.7355   -2.9300   15.2817 C.ar      1 <0>        -0.1039
     14 C10         2.0468   -3.9978   15.8261 C.ar      1 <0>        -0.1193
     15 C11         2.6358   -5.2475   15.8750 C.ar      1 <0>        -0.1034
     16 C12         3.9114   -5.4304   15.3747 C.ar      1 <0>        -0.1196
     17 C13         4.5980   -4.3637   14.8255 C.ar      1 <0>        -0.0851
     18 N3          2.6297   -0.4570   13.2032 N.pl3     1 <0>        -0.8154
     19 C14         2.0657   -0.2936   10.4393 C.2       1 <0>         0.4637
     20 O3          1.2843    0.2251   11.2111 O.2       1 <0>        -0.5048
     21 C15         1.8805   -0.1258    8.9532 C.3       1 <0>        -0.1323
     22 S1          0.4176    0.8927    8.6386 S.3       1 <0>         0.0256
     23 C16         0.4401    0.9246    6.8771 C.2       1 <0>         0.2394
     24 N4         -0.4706    1.5744    6.0914 N.pl3     1 <0>        -0.5967
     25 H1         -1.2976    2.1325    6.5546 H         1 <0>         0.4550
     26 C17        -0.1044    1.3576    4.7731 C.ar      1 <0>         0.1099
     27 C18        -0.6279    1.7580    3.5530 C.ar      1 <0>        -0.1563
     28 C19        -0.0149    1.3606    2.3777 C.ar      1 <0>         0.1451
     29 C20         1.1295    0.5704    2.4150 C.ar      1 <0>        -0.2055
     30 C21         1.6619    0.1701    3.6198 C.ar      1 <0>        -0.0222
     31 C22         1.0503    0.5596    4.8140 C.ar      1 <0>         0.0225
     32 N5          1.3320    0.3295    6.1247 N.2       1 <0>        -0.4817
     33 O4         -0.5304    1.7489    1.1807 O.3       1 <0>        -0.3156
     34 C23         0.1543    1.3091    0.0061 C.3       1 <0>         0.0236
     35 H2          6.0651   -5.2316    8.7984 H         1 <0>         0.0783
     36 H3          4.3923   -4.6133    9.0132 H         1 <0>         0.0630
     37 H4          5.3302   -5.1798   10.4366 H         1 <0>         0.0595
     38 H5          6.9442   -3.3115   10.1167 H         1 <0>         0.0995
     39 H6          6.0063   -2.7450    8.6933 H         1 <0>         0.1042
     40 H7          5.8379   -2.0936   14.3293 H         1 <0>         0.1268
     41 H8          4.4390   -1.0189   14.6677 H         1 <0>         0.1028
     42 H9          2.2770   -1.9527   15.2476 H         1 <0>         0.1181
     43 H10         1.0504   -3.8548   16.2174 H         1 <0>         0.1274
     44 H11         2.0995   -6.0808   16.3044 H         1 <0>         0.1266
     45 H12         4.3717   -6.4066   15.4132 H         1 <0>         0.1275
     46 H13         5.5947   -4.5065   14.4349 H         1 <0>         0.1335
     47 H14         2.8463   -0.5180   14.2799 H         1 <0>         0.4199
     48 H15         1.7796    0.1429   12.8463 H         1 <0>         0.4653
     49 H16         2.7676    0.3649    8.5263 H         1 <0>         0.1327
     50 H17         1.7473   -1.1129    8.4865 H         1 <0>         0.1396
     51 H18        -1.5136    2.3752    3.5200 H         1 <0>         0.1313
     52 H19         1.6032    0.2686    1.4925 H         1 <0>         0.1368
     53 H20         2.5501   -0.4439    3.6417 H         1 <0>         0.1353
     54 H21        -0.3645    1.6913   -0.8854 H         1 <0>         0.1026
     55 H22         0.1675    0.2095   -0.0205 H         1 <0>         0.0582
     56 H23         1.1869    1.6880    0.0201 H         1 <0>         0.0582
@<TRIPOS>BOND
     1    1    2 1
     2    1   35 1
     3    1   36 1
     4    1   37 1
     5    2    3 1
     6    2   38 1
     7    2   39 1
     8    3    9 am
     9    3    4 am
    10    4    5 2
    11    4    6 1
    12    6    7 2
    13    6   19 1
    14    7    8 1
    15    7   18 1
    16    8    9 am
    17    8   11 1
    18    9   10 2
    19   11   12 1
    20   11   40 1
    21   11   41 1
    22   12   17 ar
    23   12   13 ar
    24   13   14 ar
    25   13   42 1
    26   14   15 ar
    27   14   43 1
    28   15   16 ar
    29   15   44 1
    30   16   17 ar
    31   16   45 1
    32   17   46 1
    33   18   47 1
    34   18   48 1
    35   19   20 2
    36   19   21 1
    37   21   22 1
    38   21   49 1
    39   21   50 1
    40   22   23 1
    41   23   32 2
    42   23   24 1
    43   24   25 1
    44   24   26 1
    45   26   31 ar
    46   26   27 ar
    47   27   28 ar
    48   27   51 1
    49   28   29 ar
    50   28   33 1
    51   29   30 ar
    52   29   52 1
    53   30   31 ar
    54   30   53 1
    55   31   32 1
    56   33   34 1
    57   34   54 1
    58   34   55 1
    59   34   56 1
@<TRIPOS>MOLECULE
ZINC38995007
   50    53     0     0     0
SMALL
USER_CHARGES

@<TRIPOS>ATOM
      1 C1         -0.0158    1.4214    0.0114 C.3       1 <0>         0.0245
      2 O1          0.0042   -0.0075    0.0021 O.3       1 <0>        -0.3147
      3 C2         -1.1975   -0.6413    0.0103 C.ar      1 <0>         0.1420
      4 C3         -2.3716    0.0997    0.0213 C.ar      1 <0>        -0.2103
      5 C4         -3.5928   -0.5408    0.0292 C.ar      1 <0>        -0.0432
      6 C5         -3.6478   -1.9336    0.0261 C.ar      1 <0>        -0.0752
      7 C6         -2.4673   -2.6749    0.0151 C.ar      1 <0>        -0.0585
      8 C7         -1.2491   -2.0287    0.0019 C.ar      1 <0>        -0.1525
      9 C8         -4.9599   -2.6257    0.0351 C.2       1 <0>         0.0178
     10 C9         -5.1236   -3.9628    0.0385 C.2       1 <0>        -0.1523
     11 C10        -6.6310   -4.1446    0.0483 C.3       1 <0>        -0.0071
     12 H1         -6.9493   -4.6711    0.9481 H         1 <0>         0.1573
     13 N1         -7.1359   -2.7617    0.0490 N.2       1 <0>        -0.1088
     14 N2         -6.1663   -2.0002    0.0470 N.2       1 <0>        -0.1580
     15 C11        -7.0932   -4.8916   -1.2045 C.3       1 <0>         0.1430
     16 H2         -6.8084   -4.3406   -2.1008 H         1 <0>         0.1436
     17 N3         -6.5224   -6.2445   -1.2329 N.2       1 <0>        -0.1576
     18 N4         -7.3756   -7.0830   -1.5398 N.2       1 <0>        -0.1297
     19 C12        -8.6805   -6.4515   -1.7754 C.3       1 <0>         0.0581
     20 H3         -9.4712   -7.0200   -1.2858 H         1 <0>         0.1662
     21 N5         -8.5630   -5.0990   -1.1701 N.3       1 <0>        -0.2991
     22 N6         -9.0578   -5.0957    0.1972 N.3       1 <0>        -0.6550
     23 S1         -9.0070   -6.3211   -3.5550 S.3       1 <0>        -0.0237
     24 C13        -7.6198   -5.3364   -4.1847 C.3       1 <0>        -0.1603
     25 C14        -7.7702   -5.1508   -5.6727 C.2       1 <0>         0.5283
     26 O2         -8.7197   -5.6351   -6.2513 O.2       1 <0>        -0.4394
     27 N7         -6.8495   -4.4466   -6.3604 N.am      1 <0>        -0.6558
     28 C15        -6.9303   -4.3637   -7.7500 C.ar      1 <0>         0.3740
     29 C16        -5.9204   -3.7257   -8.4615 C.ar      1 <0>        -0.1979
     30 C17        -6.0124   -3.6507   -9.8400 C.ar      1 <0>        -0.0161
     31 C18        -7.1166   -4.2191  -10.4622 C.ar      1 <0>        -0.1778
     32 C19        -8.0825   -4.8376   -9.6921 C.ar      1 <0>         0.1707
     33 N8         -7.9647   -4.8977   -8.3794 N.ar      1 <0>        -0.4685
     34 Br1        -7.2960   -4.1466  -12.3433 Br        1 <0>        -0.0290
     35 H4          1.0066    1.7992    0.0034 H         1 <0>         0.1032
     36 H5         -0.5438    1.7831   -0.8709 H         1 <0>         0.0583
     37 H6         -0.5256    1.7717    0.9090 H         1 <0>         0.0585
     38 H7         -2.3283    1.1788    0.0240 H         1 <0>         0.1343
     39 H8         -4.5057    0.0362    0.0381 H         1 <0>         0.1379
     40 H9         -2.5068   -3.7542    0.0127 H         1 <0>         0.1327
     41 H10        -0.3342   -2.6025   -0.0108 H         1 <0>         0.1371
     42 H11        -4.3606   -4.7272    0.0347 H         1 <0>         0.1791
     43 H12       -10.0567   -5.2366    0.2205 H         1 <0>         0.3741
     44 H13        -8.5818   -5.7883    0.7556 H         1 <0>         0.3240
     45 H14        -7.6142   -4.3623   -3.6958 H         1 <0>         0.1204
     46 H15        -6.6831   -5.8532   -3.9759 H         1 <0>         0.1148
     47 H16        -6.1307   -3.9975   -5.8887 H         1 <0>         0.4216
     48 H17        -5.0758   -3.2942   -7.9451 H         1 <0>         0.1475
     49 H18        -5.2433   -3.1610  -10.4189 H         1 <0>         0.1512
     50 H19        -8.9430   -5.2811  -10.1710 H         1 <0>         0.1708
@<TRIPOS>BOND
     1    1    2 1
     2    1   35 1
     3    1   36 1
     4    1   37 1
     5    2    3 1
     6    3    8 ar
     7    3    4 ar
     8    4    5 ar
     9    4   38 1
    10    5    6 ar
    11    5   39 1
    12    6    7 ar
    13    6    9 1
    14    7    8 ar
    15    7   40 1
    16    8   41 1
    17    9   14 1
    18    9   10 2
    19   10   11 1
    20   10   42 1
    21   11   12 1
    22   11   13 1
    23   11   15 1
    24   13   14 2
    25   15   16 1
    26   15   21 1
    27   15   17 1
    28   17   18 2
    29   18   19 1
    30   19   20 1
    31   19   21 1
    32   19   23 1
    33   21   22 1
    34   22   43 1
    35   22   44 1
    36   23   24 1
    37   24   25 1
    38   24   45 1
    39   24   46 1
    40   25   26 2
    41   25   27 am
    42   27   28 1
    43   27   47 1
    44   28   33 ar
    45   28   29 ar
    46   29   30 ar
    47   29   48 1
    48   30   31 ar
    49   30   49 1
    50   31   32 ar
    51   31   34 1
    52   32   33 ar
    53   32   50 1
@<TRIPOS>MOLECULE
ZINC25162689
   59    62     0     0     0
SMALL
USER_CHARGES

@<TRIPOS>ATOM
      1 C1         -0.0168    1.3842    0.0097 C.ar      1 <0>        -0.0748
      2 C2          1.1703    2.0900    0.0021 C.ar      1 <0>        -0.1282
      3 C3          2.3788    1.4140   -0.0131 C.ar      1 <0>         0.1025
      4 C4          2.3996    0.0293   -0.0207 C.ar      1 <0>        -0.1255
      5 C5          1.2147   -0.6800   -0.0136 C.ar      1 <0>        -0.1171
      6 C6          0.0021   -0.0041    0.0020 C.ar      1 <0>         0.1427
      7 N1         -1.2020   -0.7225    0.0101 N.pl3     1 <0>        -0.3402
      8 C7         -1.4252   -1.8985   -0.6187 C.2       1 <0>         0.4349
      9 C8         -2.7430   -2.2608   -0.3529 C.2       1 <0>        -0.2528
     10 C9         -3.2945   -1.2460    0.4634 C.2       1 <0>         0.1668
     11 N2         -2.3741   -0.3469    0.6752 N.2       1 <0>        -0.2826
     12 C10        -4.7020   -1.2124    1.0009 C.3       1 <0>        -0.0415
     13 C11        -4.7457   -1.9132    2.3603 C.3       1 <0>        -0.1275
     14 C12        -6.1747   -1.8792    2.9060 C.3       1 <0>         0.1233
     15 N3         -6.2165   -2.5501    4.2076 N.am      1 <0>        -0.7292
     16 C13        -7.3802   -2.6422    4.8812 C.2       1 <0>         0.5611
     17 O1         -8.3954   -2.1684    4.4086 O.2       1 <0>        -0.4993
     18 C14        -7.4222   -3.3175    6.1912 C.ar      1 <0>        -0.1512
     19 C15        -6.2570   -3.8585    6.7410 C.ar      1 <0>        -0.0184
     20 C16        -6.3030   -4.4882    7.9652 C.ar      1 <0>        -0.0618
     21 C17        -7.5001   -4.5888    8.6567 C.ar      1 <0>        -0.0245
     22 C18        -8.6592   -4.0603    8.1272 C.ar      1 <0>        -0.1320
     23 C19        -8.6316   -3.4159    6.8964 C.ar      1 <0>         0.3088
     24 N4         -9.7958   -2.8771    6.3643 N.pl3     1 <0>        -0.6823
     25 C20       -10.7496   -3.5850    5.4979 C.3       1 <0>         0.1439
     26 C21       -11.8678   -2.5854    5.1347 C.3       1 <0>        -0.1269
     27 C22       -11.1877   -1.2083    5.3544 C.3       1 <0>        -0.1255
     28 C23       -10.2831   -1.5025    6.5798 C.3       1 <0>         0.1447
     29 N5         -5.0674   -5.0609    8.5453 N.pl3     1 <0>         0.0344
     30 O2         -4.0216   -4.9753    7.9448 O.2       1 <0>        -0.1574
     31 O3         -5.1041   -5.6143    9.6196 O.3       1 <0>        -0.1522
     32 C24        -3.4132   -3.4376   -0.8184 C.1       1 <0>         0.2921
     33 N6         -3.9448   -4.3712   -1.1876 N.1       1 <0>        -0.4348
     34 N7         -0.5169   -2.6068   -1.3819 N.pl3     1 <0>        -0.8337
     35 F1          3.5390    2.1062   -0.0209 F         1 <0>        -0.1307
     36 H1         -0.9590    1.9117    0.0260 H         1 <0>         0.1495
     37 H2          1.1560    3.1699    0.0077 H         1 <0>         0.1498
     38 H3          3.3431   -0.4961   -0.0325 H         1 <0>         0.1499
     39 H4          1.2313   -1.7599   -0.0203 H         1 <0>         0.1405
     40 H5         -5.0227   -0.1770    1.1155 H         1 <0>         0.0960
     41 H6         -5.3684   -1.7244    0.3067 H         1 <0>         0.0923
     42 H7         -4.4251   -2.9486    2.2458 H         1 <0>         0.0755
     43 H8         -4.0794   -1.4012    3.0546 H         1 <0>         0.0796
     44 H9         -6.4953   -0.8437    3.0205 H         1 <0>         0.0749
     45 H10        -6.8410   -2.3911    2.2117 H         1 <0>         0.0731
     46 H11        -5.4066   -2.9281    4.5846 H         1 <0>         0.3992
     47 H12        -5.3216   -3.7833    6.2065 H         1 <0>         0.1545
     48 H13        -7.5257   -5.0845    9.6159 H         1 <0>         0.1604
     49 H14        -9.5880   -4.1432    8.6721 H         1 <0>         0.1556
     50 H15       -10.2467   -3.9239    4.5921 H         1 <0>         0.0524
     51 H16       -11.1724   -4.4369    6.0304 H         1 <0>         0.0468
     52 H17       -12.1690   -2.7051    4.0940 H         1 <0>         0.0771
     53 H18       -12.7225   -2.7041    5.8007 H         1 <0>         0.0706
     54 H19       -10.5941   -0.9227    4.4860 H         1 <0>         0.0830
     55 H20       -11.9255   -0.4415    5.5908 H         1 <0>         0.0738
     56 H21       -10.8601   -1.4449    7.5028 H         1 <0>         0.0495
     57 H22        -9.4469   -0.8040    6.6099 H         1 <0>         0.0565
     58 H23         0.3824   -2.2652   -1.5069 H         1 <0>         0.4101
     59 H24        -0.7784   -3.4457   -1.7927 H         1 <0>         0.4240
@<TRIPOS>BOND
     1    1    6 ar
     2    1    2 ar
     3    1   36 1
     4    2    3 ar
     5    2   37 1
     6    3    4 ar
     7    3   35 1
     8    4    5 ar
     9    4   38 1
    10    5    6 ar
    11    5   39 1
    12    6    7 1
    13    7   11 1
    14    7    8 1
    15    8    9 2
    16    8   34 1
    17    9   10 1
    18    9   32 1
    19   10   11 2
    20   10   12 1
    21   12   13 1
    22   12   40 1
    23   12   41 1
    24   13   14 1
    25   13   42 1
    26   13   43 1
    27   14   15 1
    28   14   44 1
    29   14   45 1
    30   15   16 am
    31   15   46 1
    32   16   17 2
    33   16   18 1
    34   18   23 ar
    35   18   19 ar
    36   19   20 ar
    37   19   47 1
    38   20   21 ar
    39   20   29 1
    40   21   22 ar
    41   21   48 1
    42   22   23 ar
    43   22   49 1
    44   23   24 1
    45   24   28 1
    46   24   25 1
    47   25   26 1
    48   25   50 1
    49   25   51 1
    50   26   27 1
    51   26   52 1
    52   26   53 1
    53   27   28 1
    54   27   54 1
    55   27   55 1
    56   28   56 1
    57   28   57 1
    58   29   30 2
    59   29   31 1
    60   32   33 3
    61   34   58 1
    62   34   59 1
@<TRIPOS>MOLECULE
ZINC10722733
   65    70     0     0     0
SMALL
USER_CHARGES
[2-(1-adamantylcarbamoylamino)-2-oxo-ethyl] 2-(9-oxoacridin-10-yl)acetate
@<TRIPOS>ATOM
      1 C1          1.1841    1.7786    0.0003 C.ar      1 <0>        -0.1640
      2 C2         -0.0126    1.0758    0.0080 C.ar      1 <0>        -0.0435
      3 C3         -1.2188    1.7408    0.0173 C.ar      1 <0>        -0.1892
      4 C4         -1.2442    3.1345    0.0308 C.ar      1 <0>         0.2259
      5 C5         -0.0285    3.8387    0.0225 C.ar      1 <0>        -0.2059
      6 C6          1.1835    3.1453    0.0072 C.ar      1 <0>        -0.0208
      7 C7         -0.0525    5.3127    0.0306 C.2       1 <0>         0.4374
      8 O1          0.9778    5.9615    0.0244 O.2       1 <0>        -0.4640
      9 C8         -1.3713    5.9714    0.0478 C.ar      1 <0>        -0.2059
     10 C9         -1.4728    7.3641    0.0572 C.ar      1 <0>        -0.0208
     11 C10        -2.7050    7.9551    0.0735 C.ar      1 <0>        -0.1639
     12 C11        -3.8559    7.1796    0.0803 C.ar      1 <0>        -0.0436
     13 C12        -3.7775    5.8045    0.0712 C.ar      1 <0>        -0.1891
     14 C13        -2.5317    5.1793    0.0550 C.ar      1 <0>         0.2258
     15 N1         -2.4486    3.8038    0.0468 N.pl3     1 <0>        -0.5047
     16 C14        -3.6883    3.0232    0.0548 C.3       1 <0>         0.1051
     17 C15        -4.0990    2.7474    1.4783 C.2       1 <0>         0.4423
     18 O2         -3.4253    3.1605    2.3923 O.2       1 <0>        -0.4790
     19 O3         -5.2132    2.0428    1.7308 O.3       1 <0>        -0.3289
     20 C16        -5.5475    1.8154    3.1254 C.3       1 <0>         0.0517
     21 C17        -6.8202    1.0131    3.2125 C.2       1 <0>         0.5193
     22 O4         -7.3892    0.6670    2.1995 O.2       1 <0>        -0.4385
     23 N2         -7.3258    0.6802    4.4167 N.am      1 <0>        -0.6897
     24 C18        -8.4640   -0.0374    4.4946 C.2       1 <0>         0.6971
     25 O5         -9.0344   -0.3843    3.4790 O.2       1 <0>        -0.5183
     26 N3         -8.9696   -0.3703    5.6988 N.am      1 <0>        -0.7306
     27 C19       -10.2068   -1.1504    5.7835 C.3       1 <0>         0.1994
     28 C20       -11.3423   -0.3808    5.1057 C.3       1 <0>        -0.1241
     29 C21       -12.6344   -1.1954    5.1942 C.3       1 <0>        -0.0821
     30 C22       -12.9866   -1.4350    6.6637 C.3       1 <0>        -0.1120
     31 C23       -11.8511   -2.2045    7.3415 C.3       1 <0>        -0.0800
     32 C24       -10.5591   -1.3899    7.2530 C.3       1 <0>        -0.1139
     33 C25       -11.6555   -3.5491    6.6382 C.3       1 <0>        -0.1120
     34 C26       -11.3032   -3.3096    5.1687 C.3       1 <0>        -0.0821
     35 C27       -12.4387   -2.5401    4.4909 C.3       1 <0>        -0.1105
     36 C28       -10.0111   -2.4950    5.0802 C.3       1 <0>        -0.1241
     37 H1          2.1214    1.2423   -0.0115 H         1 <0>         0.1334
     38 H2          0.0021   -0.0041    0.0020 H         1 <0>         0.1344
     39 H3         -2.1436    1.1831    0.0187 H         1 <0>         0.1310
     40 H4          2.1176    3.6874    0.0012 H         1 <0>         0.1404
     41 H5         -0.5803    7.9723    0.0520 H         1 <0>         0.1404
     42 H6         -2.7835    9.0322    0.0808 H         1 <0>         0.1334
     43 H7         -4.8234    7.6594    0.0928 H         1 <0>         0.1344
     44 H8         -4.6800    5.2114    0.0766 H         1 <0>         0.1309
     45 H9         -4.4751    3.5856   -0.4479 H         1 <0>         0.1423
     46 H10        -3.5267    2.0794   -0.4661 H         1 <0>         0.1423
     47 H11        -4.7386    1.2672    3.6082 H         1 <0>         0.1108
     48 H12        -5.6869    2.7734    3.6264 H         1 <0>         0.1108
     49 H13        -6.8706    0.9570    5.2272 H         1 <0>         0.4111
     50 H14        -8.5144   -0.0935    6.5093 H         1 <0>         0.3976
     51 H15       -11.4817    0.5771    5.6068 H         1 <0>         0.0600
     52 H16       -11.0913   -0.2102    4.0588 H         1 <0>         0.0870
     53 H17       -13.4433   -0.6472    4.7114 H         1 <0>         0.0734
     54 H18       -13.9071   -2.0153    6.7267 H         1 <0>         0.0660
     55 H19       -13.1261   -0.4770    7.1647 H         1 <0>         0.0628
     56 H20       -12.1021   -2.3752    8.3884 H         1 <0>         0.0765
     57 H21        -9.7501   -1.9381    7.7358 H         1 <0>         0.0697
     58 H22       -10.6985   -0.4320    7.7540 H         1 <0>         0.0697
     59 H23       -10.8465   -4.0974    7.1210 H         1 <0>         0.0628
     60 H24       -12.5760   -4.1295    6.7012 H         1 <0>         0.0660
     61 H25       -11.1638   -4.2675    4.6677 H         1 <0>         0.0734
     62 H26       -13.3592   -3.1204    4.5540 H         1 <0>         0.0638
     63 H27       -12.1877   -2.3694    3.4440 H         1 <0>         0.0659
     64 H28        -9.7602   -2.3243    4.0333 H         1 <0>         0.0870
     65 H29        -9.2022   -3.0432    5.5631 H         1 <0>         0.0600
@<TRIPOS>BOND
     1    1    6 ar
     2    1    2 ar
     3    1   37 1
     4    2    3 ar
     5    2   38 1
     6    3    4 ar
     7    3   39 1
     8    4   15 1
     9    4    5 ar
    10    5    6 ar
    11    5    7 1
    12    6   40 1
    13    7    8 2
    14    7    9 1
    15    9   14 ar
    16    9   10 ar
    17   10   11 ar
    18   10   41 1
    19   11   12 ar
    20   11   42 1
    21   12   13 ar
    22   12   43 1
    23   13   14 ar
    24   13   44 1
    25   14   15 1
    26   15   16 1
    27   16   17 1
    28   16   45 1
    29   16   46 1
    30   17   18 2
    31   17   19 1
    32   19   20 1
    33   20   21 1
    34   20   47 1
    35   20   48 1
    36   21   22 2
    37   21   23 am
    38   23   24 am
    39   23   49 1
    40   24   25 2
    41   24   26 am
    42   26   27 1
    43   26   50 1
    44   27   32 1
    45   27   36 1
    46   27   28 1
    47   28   29 1
    48   28   51 1
    49   28   52 1
    50   29   35 1
    51   29   30 1
    52   29   53 1
    53   30   31 1
    54   30   54 1
    55   30   55 1
    56   31   32 1
    57   31   33 1
    58   31   56 1
    59   32   57 1
    60   32   58 1
    61   33   34 1
    62   33   59 1
    63   33   60 1
    64   34   35 1
    65   34   36 1
    66   34   61 1
    67   35   62 1
    68   35   63 1
    69   36   64 1
    70   36   65 1
@<TRIPOS>MOLECULE
ZINC22203074
   62    65     0     0     0
SMALL
USER_CHARGES
N-(isopropylcarbamoyl)-2-[[(7R)-7-methyl-4-oxo-3-[[(2S)-tetrahydrofuran-2-yl]methyl]-5,6,7,8-tetrahydrobenzothiopheno[2,3-d]pyrimidin-2-yl]sulfanyl]acetamide
@<TRIPOS>ATOM
      1 C1          4.7246    4.4008    0.0647 C.3       1 <0>        -0.1493
      2 C2          3.9091    3.1394    0.3554 C.3       1 <0>        -0.0873
      3 H1          4.0016    2.8950    1.4239 H         1 <0>         0.0768
      4 C3          4.4373    1.9792   -0.4935 C.3       1 <0>        -0.1179
      5 C4          3.8021    0.6671   -0.0319 C.3       1 <0>        -0.0608
      6 C5          2.2851    0.8336   -0.0152 C.2       1 <0>        -0.0432
      7 C6          1.7267    2.0607   -0.0034 C.2       1 <0>        -0.1698
      8 S1         -0.0220    1.7708    0.0118 S.3       1 <0>         0.1363
      9 C7          0.0021   -0.0041    0.0020 C.2       1 <0>         0.1132
     10 C8          1.3729   -0.3117   -0.0126 C.2       1 <0>        -0.2449
     11 C9          1.6993   -1.7048   -0.0230 C.2       1 <0>         0.5623
     12 O1          2.8633   -2.0668   -0.0359 O.2       1 <0>        -0.4985
     13 N1          0.7034   -2.6099   -0.0189 N.am      1 <0>        -0.5039
     14 C10        -0.6053   -2.2227   -0.0049 C.2       1 <0>         0.3567
     15 N2         -0.9332   -0.9464    0.0054 N.2       1 <0>        -0.5031
     16 S2         -1.8735   -3.4460   -0.0001 S.3       1 <0>         0.1006
     17 C11        -3.3371   -2.3813    0.0197 C.3       1 <0>        -0.1580
     18 C12        -4.5791   -3.2347    0.0264 C.2       1 <0>         0.5403
     19 O2         -4.4841   -4.4433    0.0185 O.2       1 <0>        -0.4561
     20 N3         -5.7954   -2.6544    0.0410 N.am      1 <0>        -0.6989
     21 C13        -6.9062   -3.4177    0.0470 C.2       1 <0>         0.6976
     22 O3         -6.8110   -4.6293    0.0392 O.2       1 <0>        -0.5326
     23 N4         -8.1225   -2.8374    0.0617 N.am      1 <0>        -0.7446
     24 C14        -9.3299   -3.6671    0.0682 C.3       1 <0>         0.1546
     25 C15       -10.4849   -2.8820    0.6932 C.3       1 <0>        -0.1609
     26 C16        -9.6925   -4.0513   -1.3677 C.3       1 <0>        -0.1669
     27 C17         1.0302   -4.0380   -0.0302 C.3       1 <0>         0.0696
     28 C18         1.1310   -4.5267   -1.4765 C.3       1 <0>         0.0625
     29 H2          0.2336   -4.2243   -2.0362 H         1 <0>         0.0888
     30 C19         1.3611   -6.0531   -1.4987 C.3       1 <0>        -0.1492
     31 C20         2.3764   -6.2165   -2.6626 C.3       1 <0>        -0.1543
     32 C21         3.2013   -4.9128   -2.5184 C.3       1 <0>         0.0541
     33 O4          2.2523   -3.9105   -2.1206 O.3       1 <0>        -0.3623
     34 C22         2.4357    3.3808   -0.0028 C.3       1 <0>        -0.0319
     35 H3          5.7791    4.2232    0.3227 H         1 <0>         0.0598
     36 H4          4.3355    5.2356    0.6661 H         1 <0>         0.0578
     37 H5          4.6455    4.6504   -1.0037 H         1 <0>         0.0574
     38 H6          4.1848    2.1532   -1.5499 H         1 <0>         0.0663
     39 H7          5.5298    1.9123   -0.3839 H         1 <0>         0.0719
     40 H8          4.0808   -0.1393   -0.7262 H         1 <0>         0.0883
     41 H9          4.1611    0.4214    0.9784 H         1 <0>         0.0781
     42 H10        -3.3201   -1.7515    0.9214 H         1 <0>         0.1403
     43 H11        -3.3370   -1.7411   -0.8748 H         1 <0>         0.1404
     44 H12        -5.8816   -1.5578    0.0480 H         1 <0>         0.4376
     45 H13        -8.2087   -1.7408    0.0688 H         1 <0>         0.4164
     46 H14        -9.1039   -4.5638    0.6638 H         1 <0>         0.0893
     47 H15       -11.3915   -3.5050    0.6981 H         1 <0>         0.0761
     48 H16       -10.6693   -1.9708    0.1053 H         1 <0>         0.0634
     49 H17       -10.2242   -2.6058    1.7256 H         1 <0>         0.0629
     50 H18       -10.5991   -4.6743   -1.3628 H         1 <0>         0.0684
     51 H19        -8.8621   -4.6158   -1.8170 H         1 <0>         0.0608
     52 H20        -9.8770   -3.1401   -1.9556 H         1 <0>         0.0581
     53 H21         1.9921   -4.1980    0.4788 H         1 <0>         0.1168
     54 H22         0.2412   -4.5989    0.4922 H         1 <0>         0.1089
     55 H23         1.7653   -6.3771   -0.5283 H         1 <0>         0.0829
     56 H24         0.4061   -6.5652   -1.6875 H         1 <0>         0.0908
     57 H25         2.9683   -7.1306   -2.5072 H         1 <0>         0.0870
     58 H26         1.8326   -6.2894   -3.6160 H         1 <0>         0.0805
     59 H27         3.9824   -5.0555   -1.7572 H         1 <0>         0.0635
     60 H28         3.6697   -4.6667   -3.4828 H         1 <0>         0.0871
     61 H29         1.9823    4.0511    0.7423 H         1 <0>         0.0837
     62 H30         2.3715    3.8429   -0.9990 H         1 <0>         0.0864
@<TRIPOS>BOND
     1    1    2 1
     2    1   35 1
     3    1   36 1
     4    1   37 1
     5    2    3 1
     6    2   34 1
     7    2    4 1
     8    4    5 1
     9    4   38 1
    10    4   39 1
    11    5    6 1
    12    5   40 1
    13    5   41 1
    14    6   10 1
    15    6    7 2
    16    7    8 1
    17    7   34 1
    18    8    9 1
    19    9   15 1
    20    9   10 2
    21   10   11 1
    22   11   12 2
    23   11   13 am
    24   13   14 1
    25   13   27 1
    26   14   15 2
    27   14   16 1
    28   16   17 1
    29   17   18 1
    30   17   42 1
    31   17   43 1
    32   18   19 2
    33   18   20 am
    34   20   21 am
    35   20   44 1
    36   21   22 2
    37   21   23 am
    38   23   24 1
    39   23   45 1
    40   24   25 1
    41   24   26 1
    42   24   46 1
    43   25   47 1
    44   25   48 1
    45   25   49 1
    46   26   50 1
    47   26   51 1
    48   26   52 1
    49   27   28 1
    50   27   53 1
    51   27   54 1
    52   28   29 1
    53   28   33 1
    54   28   30 1
    55   30   31 1
    56   30   55 1
    57   30   56 1
    58   31   32 1
    59   31   57 1
    60   31   58 1
    61   32   33 1
    62   32   59 1
    63   32   60 1
    64   34   61 1
    65   34   62 1
@<TRIPOS>MOLECULE
ZINC29571608
   62    65     0     0     0
SMALL
USER_CHARGES
(2S)-N-[(2,4-dimethylphenyl)carbamoyl]-2-[4-oxo-3-[[(2S)-tetrahydrofuran-2-yl]methyl]quinazolin-2-yl]sulfanyl-propanamide
@<TRIPOS>ATOM
      1 C1         -4.8382    3.9452    0.0951 C.3       1 <0>        -0.1159
      2 C2         -3.5560    3.1536    0.0722 C.ar      1 <0>        -0.1002
      3 C3         -2.3936    3.7081    0.5762 C.ar      1 <0>        -0.1024
      4 C4         -1.2170    2.9856    0.5562 C.ar      1 <0>        -0.1251
      5 C5         -1.2019    1.7005    0.0295 C.ar      1 <0>         0.1590
      6 C6         -2.3695    1.1484   -0.4801 C.ar      1 <0>        -0.1131
      7 C7         -3.5442    1.8748   -0.4532 C.ar      1 <0>        -0.1004
      8 C8         -2.3563   -0.2434   -1.0577 C.3       1 <0>        -0.1151
      9 N1         -0.0111    0.9658    0.0074 N.am      1 <0>        -0.6840
     10 C9          1.1753    1.6052    0.0091 C.2       1 <0>         0.6987
     11 O1          1.2125    2.8175   -0.0705 O.2       1 <0>        -0.5115
     12 N2          2.3206    0.9004    0.0991 N.am      1 <0>        -0.6964
     13 C10         3.5070    1.5399    0.1008 C.2       1 <0>         0.5370
     14 O2          3.5441    2.7490    0.0214 O.2       1 <0>        -0.4519
     15 C11         4.7876    0.7518    0.2015 C.3       1 <0>        -0.1134
     16 H1          4.5556   -0.1955   -0.3073 H         1 <0>         0.1345
     17 C12         5.0361    0.3668    1.6613 C.3       1 <0>        -0.1527
     18 S1          6.1653    1.7600   -0.3996 S.3       1 <0>         0.0903
     19 C13         7.4691    0.5778   -0.3156 C.2       1 <0>         0.3581
     20 N3          7.1912   -0.6290    0.1123 N.2       1 <0>        -0.5308
     21 C14         8.1397   -1.5829    0.2021 C.ar      1 <0>         0.1657
     22 C15         7.8435   -2.8706    0.6591 C.ar      1 <0>        -0.1143
     23 C16         8.8363   -3.8062    0.7348 C.ar      1 <0>        -0.0707
     24 C17        10.1388   -3.4982    0.3632 C.ar      1 <0>        -0.1405
     25 C18        10.4597   -2.2476   -0.0877 C.ar      1 <0>        -0.0376
     26 C19         9.4665   -1.2732   -0.1747 C.ar      1 <0>        -0.1971
     27 C20         9.7531    0.0867   -0.6512 C.2       1 <0>         0.5570
     28 O3         10.8756    0.4136   -0.9903 O.2       1 <0>        -0.4869
     29 N4          8.7210    0.9606   -0.7047 N.am      1 <0>        -0.5215
     30 C21         8.9494    2.3281   -1.1779 C.3       1 <0>         0.0733
     31 C22         9.3205    3.2224    0.0069 C.3       1 <0>         0.0612
     32 H2          8.5828    3.0990    0.8135 H         1 <0>         0.0900
     33 C23         9.4504    4.6872   -0.4631 C.3       1 <0>        -0.1497
     34 C24        10.6752    5.1870    0.3506 C.3       1 <0>        -0.1543
     35 C25        11.5341    3.8988    0.4104 C.3       1 <0>         0.0537
     36 O4         10.5898    2.8239    0.5376 O.3       1 <0>        -0.3642
     37 H3         -4.6524    4.9310    0.5463 H         1 <0>         0.0654
     38 H4         -5.5913    3.4062    0.6887 H         1 <0>         0.0690
     39 H5         -5.2067    4.0761   -0.9330 H         1 <0>         0.0690
     40 H6         -2.4061    4.7074    0.9856 H         1 <0>         0.1248
     41 H7         -0.3095    3.4194    0.9493 H         1 <0>         0.1454
     42 H8         -4.4535    1.4447   -0.8464 H         1 <0>         0.1256
     43 H9         -3.3658   -0.5045   -1.4081 H         1 <0>         0.0720
     44 H10        -2.0403   -0.9585   -0.2839 H         1 <0>         0.0668
     45 H11        -1.6532   -0.2830   -1.9027 H         1 <0>         0.0684
     46 H12        -0.0434   -0.1336   -0.0114 H         1 <0>         0.4300
     47 H13         2.2870   -0.1967    0.1712 H         1 <0>         0.4374
     48 H14         5.9708   -0.2084    1.7348 H         1 <0>         0.1022
     49 H15         4.1988   -0.2460    2.0265 H         1 <0>         0.0730
     50 H16         5.1174    1.2780    2.2721 H         1 <0>         0.0694
     51 H17         6.8353   -3.1242    0.9514 H         1 <0>         0.1377
     52 H18         8.6049   -4.8000    1.0889 H         1 <0>         0.1335
     53 H19        10.9067   -4.2546    0.4315 H         1 <0>         0.1326
     54 H20        11.4750   -2.0167   -0.3745 H         1 <0>         0.1369
     55 H21         9.7701    2.3304   -1.9103 H         1 <0>         0.1133
     56 H22         8.0334    2.7097   -1.6526 H         1 <0>         0.1076
     57 H23         9.6192    4.7100   -1.5498 H         1 <0>         0.0824
     58 H24         8.5253    5.2324   -0.2242 H         1 <0>         0.0907
     59 H25        11.1605    6.0142   -0.1881 H         1 <0>         0.0869
     60 H26        10.3408    5.5386    1.3378 H         1 <0>         0.0807
     61 H27        12.1266    3.8100   -0.5121 H         1 <0>         0.0632
     62 H28        12.2099    3.9486    1.2769 H         1 <0>         0.0874
@<TRIPOS>BOND
     1    1    2 1
     2    1   37 1
     3    1   38 1
     4    1   39 1
     5    2    7 ar
     6    2    3 ar
     7    3    4 ar
     8    3   40 1
     9    4    5 ar
    10    4   41 1
    11    5    6 ar
    12    5    9 1
    13    6    7 ar
    14    6    8 1
    15    7   42 1
    16    8   43 1
    17    8   44 1
    18    8   45 1
    19    9   10 am
    20    9   46 1
    21   10   11 2
    22   10   12 am
    23   12   13 am
    24   12   47 1
    25   13   14 2
    26   13   15 1
    27   15   16 1
    28   15   17 1
    29   15   18 1
    30   17   48 1
    31   17   49 1
    32   17   50 1
    33   18   19 1
    34   19   29 1
    35   19   20 2
    36   20   21 1
    37   21   26 ar
    38   21   22 ar
    39   22   23 ar
    40   22   51 1
    41   23   24 ar
    42   23   52 1
    43   24   25 ar
    44   24   53 1
    45   25   26 ar
    46   25   54 1
    47   26   27 1
    48   27   28 2
    49   27   29 am
    50   29   30 1
    51   30   31 1
    52   30   55 1
    53   30   56 1
    54   31   32 1
    55   31   36 1
    56   31   33 1
    57   33   34 1
    58   33   57 1
    59   33   58 1
    60   34   35 1
    61   34   59 1
    62   34   60 1
    63   35   36 1
    64   35   61 1
    65   35   62 1
@<TRIPOS>MOLECULE
ZINC38856003
   59    62     0     0     0
SMALL
USER_CHARGES

@<TRIPOS>ATOM
      1 C1         -0.0224    1.5208    0.0163 C.3       1 <0>        -0.1588
      2 C2         -0.0016   -0.0090    0.0130 C.3       1 <0>         0.1837
      3 H1          0.5059   -0.3636   -0.8841 H         1 <0>         0.0999
      4 C3         -1.4153   -0.5307    0.0298 C.ar      1 <0>        -0.0950
      5 C4         -2.1228   -0.5720    1.2167 C.ar      1 <0>        -0.1162
      6 C5         -3.4196   -1.0505    1.2321 C.ar      1 <0>        -0.1147
      7 C6         -4.0091   -1.4873    0.0605 C.ar      1 <0>        -0.1172
      8 C7         -3.3019   -1.4452   -1.1265 C.ar      1 <0>        -0.1140
      9 C8         -2.0066   -0.9626   -1.1427 C.ar      1 <0>        -0.1064
     10 N1          0.7106   -0.4902    1.1994 N.am      1 <0>        -0.7166
     11 C9          2.0537   -0.6007    1.1804 C.2       1 <0>         0.5700
     12 O1          2.6743   -0.3008    0.1787 O.2       1 <0>        -0.5428
     13 C10         2.7709   -1.0852    2.3750 C.ar      1 <0>        -0.1698
     14 C11         2.0737   -1.3374    3.5589 C.ar      1 <0>        -0.0651
     15 C12         2.7493   -1.7904    4.6713 C.ar      1 <0>        -0.1396
     16 C13         4.1184   -1.9976    4.6222 C.ar      1 <0>        -0.0669
     17 C14         4.8208   -1.7523    3.4596 C.ar      1 <0>        -0.1315
     18 C15         4.1560   -1.3011    2.3272 C.ar      1 <0>         0.2127
     19 N2          4.8619   -1.0585    1.1512 N.am      1 <0>        -0.6570
     20 C16         5.9128   -1.8362    0.8235 C.2       1 <0>         0.5259
     21 O2          6.1853   -2.8044    1.5011 O.2       1 <0>        -0.4866
     22 C17         6.7492   -1.5026   -0.3849 C.3       1 <0>         0.0701
     23 H2          6.1087   -1.4302   -1.2638 H         1 <0>         0.1127
     24 C18         7.4675   -0.1644   -0.1600 C.3       1 <0>         0.0804
     25 N3          8.3076    0.0941   -1.3419 N.pl3     1 <0>        -0.9392
     26 C19         9.0261   -0.9851   -1.8806 C.ar      1 <0>         0.0955
     27 C20        10.0401   -0.7563   -2.7970 C.ar      1 <0>        -0.1329
     28 C21        10.7427   -1.8227   -3.3273 C.ar      1 <0>        -0.1112
     29 C22        10.4337   -3.1147   -2.9444 C.ar      1 <0>        -0.1045
     30 C23         9.4240   -3.3483   -2.0295 C.ar      1 <0>        -0.1134
     31 C24         8.7154   -2.2851   -1.4908 C.ar      1 <0>         0.0980
     32 O3          7.7274   -2.5252   -0.5877 O.3       1 <0>        -0.2798
     33 S1          8.4011    1.6053   -2.0126 S.o2      1 <0>         2.6013
     34 O4          8.7365    1.3775   -3.3745 O.2       1 <0>        -0.9321
     35 O5          7.1750    2.2332   -1.6637 O.2       1 <0>        -0.9391
     36 C25         9.7818    2.4112   -1.1554 C.3       1 <0>        -0.6687
     37 H3          1.0001    1.8982    0.0042 H         1 <0>         0.0675
     38 H4         -0.5523    1.8789   -0.8664 H         1 <0>         0.0703
     39 H5         -0.5299    1.8754    0.9135 H         1 <0>         0.0599
     40 H6         -1.6622   -0.2307    2.1320 H         1 <0>         0.1191
     41 H7         -3.9720   -1.0834    2.1595 H         1 <0>         0.1248
     42 H8         -5.0220   -1.8618    0.0727 H         1 <0>         0.1241
     43 H9         -3.7624   -1.7867   -2.0418 H         1 <0>         0.1256
     44 H10        -1.4554   -0.9262   -2.0707 H         1 <0>         0.1253
     45 H11         0.2155   -0.7294    1.9985 H         1 <0>         0.4008
     46 H12         1.0065   -1.1772    3.6025 H         1 <0>         0.1290
     47 H13         2.2089   -1.9845    5.5860 H         1 <0>         0.1333
     48 H14         4.6393   -2.3527    5.4991 H         1 <0>         0.1345
     49 H15         5.8880   -1.9156    3.4295 H         1 <0>         0.1418
     50 H16         4.5972   -0.3299    0.5682 H         1 <0>         0.4281
     51 H17         6.7345    0.6342   -0.0455 H         1 <0>         0.1248
     52 H18         8.0918   -0.2249    0.7314 H         1 <0>         0.1002
     53 H19        10.2809    0.2529   -3.0967 H         1 <0>         0.1463
     54 H20        11.5334   -1.6462   -4.0415 H         1 <0>         0.1343
     55 H21        10.9833   -3.9453   -3.3621 H         1 <0>         0.1351
     56 H22         9.1867   -4.3597   -1.7343 H         1 <0>         0.1389
     57 H23        10.6629    1.7713   -1.2042 H         1 <0>         0.1342
     58 H24         9.9992    3.3659   -1.6343 H         1 <0>         0.1380
     59 H25         9.5130    2.5806   -0.1128 H         1 <0>         0.1330
@<TRIPOS>BOND
     1    1    2 1
     2    1   37 1
     3    1   38 1
     4    1   39 1
     5    2    3 1
     6    2    4 1
     7    2   10 1
     8    4    9 ar
     9    4    5 ar
    10    5    6 ar
    11    5   40 1
    12    6    7 ar
    13    6   41 1
    14    7    8 ar
    15    7   42 1
    16    8    9 ar
    17    8   43 1
    18    9   44 1
    19   10   11 am
    20   10   45 1
    21   11   12 2
    22   11   13 1
    23   13   18 ar
    24   13   14 ar
    25   14   15 ar
    26   14   46 1
    27   15   16 ar
    28   15   47 1
    29   16   17 ar
    30   16   48 1
    31   17   18 ar
    32   17   49 1
    33   18   19 1
    34   19   20 am
    35   19   50 1
    36   20   21 2
    37   20   22 1
    38   22   23 1
    39   22   32 1
    40   22   24 1
    41   24   25 1
    42   24   51 1
    43   24   52 1
    44   25   26 1
    45   25   33 1
    46   26   31 ar
    47   26   27 ar
    48   27   28 ar
    49   27   53 1
    50   28   29 ar
    51   28   54 1
    52   29   30 ar
    53   29   55 1
    54   30   31 ar
    55   30   56 1
    56   31   32 1
    57   33   34 2
    58   33   35 2
    59   33   36 1
    60   36   57 1
    61   36   58 1
    62   36   59 1
@<TRIPOS>MOLECULE
ZINC08909237
   55    60     0     0     0
SMALL
USER_CHARGES

@<TRIPOS>ATOM
      1 C1         -0.2256    1.2565    0.0146 C.ar      1 <0>        -0.1450
      2 C2          0.8107    1.8999   -0.6431 C.ar      1 <0>        -0.0598
      3 C3          2.0706    1.3377   -0.6800 C.ar      1 <0>        -0.1424
      4 C4          2.3076    0.1198   -0.0563 C.ar      1 <0>         0.2233
      5 C5          1.2606   -0.5343    0.6105 C.ar      1 <0>        -0.1821
      6 C6         -0.0091    0.0477    0.6395 C.ar      1 <0>        -0.0624
      7 C7          1.4990   -1.8282    1.2764 C.2       1 <0>         0.5678
      8 O1          2.6245   -2.2850    1.3323 O.2       1 <0>        -0.4796
      9 N1          0.4692   -2.5046    1.8229 N.am      1 <0>        -0.6161
     10 C8          0.6937   -3.7234    2.4500 C.2       1 <0>         0.2688
     11 N2          1.8323   -4.3630    2.6103 N.2       1 <0>        -0.5199
     12 C9          1.8800   -5.5248    3.2356 C.2       1 <0>         0.0618
     13 C10         0.7080   -6.0227    3.7008 C.2       1 <0>        -0.2417
     14 S1         -0.4236   -4.7372    3.1959 S.3       1 <0>         0.1137
     15 N3          3.5773   -0.4494   -0.0930 N.am      1 <0>        -0.6563
     16 C11         4.6624    0.3334   -0.2548 C.2       1 <0>         0.5638
     17 O2          4.5430    1.5433   -0.2655 O.2       1 <0>        -0.5107
     18 C12         5.9957   -0.2780   -0.4191 C.ar      1 <0>        -0.1342
     19 C13         6.1342   -1.6685   -0.4129 C.ar      1 <0>        -0.0643
     20 C14         7.3796   -2.2354   -0.5669 C.ar      1 <0>        -0.1073
     21 C15         8.4988   -1.4260   -0.7280 C.ar      1 <0>         0.1435
     22 C16         8.3650   -0.0418   -0.7343 C.ar      1 <0>        -0.1116
     23 C17         7.1219    0.5321   -0.5870 C.ar      1 <0>        -0.0395
     24 N4          9.7617   -2.0051   -0.8836 N.am      1 <0>        -0.5277
     25 C18        10.7957   -1.7099   -0.0880 C.2       1 <0>         0.5353
     26 O3         10.7658   -0.9274    0.8374 O.2       1 <0>        -0.4618
     27 C19        12.0071   -2.5038   -0.5208 C.3       1 <0>        -0.1234
     28 H1         12.8688   -1.8804   -0.7592 H         1 <0>         0.1430
     29 C20        12.3052   -3.5774    0.5726 C.3       1 <0>        -0.0575
     30 H2         12.9471   -3.2621    1.3951 H         1 <0>         0.1208
     31 C21        12.8355   -4.7568   -0.3217 C.3       1 <0>        -0.1129
     32 C22        11.5248   -4.8106   -1.1883 C.3       1 <0>        -0.0541
     33 H3         11.4632   -5.6061   -1.9310 H         1 <0>         0.1218
     34 C23        11.4804   -3.3266   -1.7338 C.3       1 <0>        -0.1223
     35 H4         12.0557   -3.1726   -2.6467 H         1 <0>         0.1458
     36 C24        10.0328   -2.9038   -1.8368 C.2       1 <0>         0.5365
     37 O4          9.2406   -3.3141   -2.6575 O.2       1 <0>        -0.4625
     38 C25        10.4736   -4.8407   -0.0722 C.2       1 <0>        -0.1754
     39 C26        10.9215   -4.1141    0.9584 C.2       1 <0>        -0.1717
     40 H5         -1.2067    1.7071    0.0414 H         1 <0>         0.1347
     41 H6          0.6311    2.8469   -1.1303 H         1 <0>         0.1359
     42 H7          2.8730    1.8454   -1.1946 H         1 <0>         0.1560
     43 H8         -0.8202   -0.4495    1.1507 H         1 <0>         0.1293
     44 H9         -0.4286   -2.1402    1.7782 H         1 <0>         0.4269
     45 H10         2.8112   -6.0550    3.3701 H         1 <0>         0.1768
     46 H11         0.5132   -6.9417    4.2336 H         1 <0>         0.2005
     47 H12         3.6812   -1.4096   -0.0020 H         1 <0>         0.4250
     48 H13         5.2655   -2.2978   -0.2871 H         1 <0>         0.1379
     49 H14         7.4874   -3.3100   -0.5622 H         1 <0>         0.1349
     50 H15         9.2365    0.5838   -0.8590 H         1 <0>         0.1371
     51 H16         7.0181    1.6070   -0.5968 H         1 <0>         0.1487
     52 H17        13.7114   -4.4761   -0.9065 H         1 <0>         0.0891
     53 H18        12.9974   -5.6721    0.2476 H         1 <0>         0.0907
     54 H19         9.5255   -5.3564   -0.1111 H         1 <0>         0.1343
     55 H20        10.4160   -3.9406    1.8969 H         1 <0>         0.1385
@<TRIPOS>BOND
     1    1    6 ar
     2    1    2 ar
     3    1   40 1
     4    2    3 ar
     5    2   41 1
     6    3    4 ar
     7    3   42 1
     8    4    5 ar
     9    4   15 1
    10    5    6 ar
    11    5    7 1
    12    6   43 1
    13    7    8 2
    14    7    9 am
    15    9   10 1
    16    9   44 1
    17   10   14 1
    18   10   11 2
    19   11   12 1
    20   12   13 2
    21   12   45 1
    22   13   14 1
    23   13   46 1
    24   15   16 am
    25   15   47 1
    26   16   17 2
    27   16   18 1
    28   18   23 ar
    29   18   19 ar
    30   19   20 ar
    31   19   48 1
    32   20   21 ar
    33   20   49 1
    34   21   22 ar
    35   21   24 1
    36   22   23 ar
    37   22   50 1
    38   23   51 1
    39   24   36 am
    40   24   25 am
    41   25   26 2
    42   25   27 1
    43   27   28 1
    44   27   34 1
    45   27   29 1
    46   29   30 1
    47   29   39 1
    48   29   31 1
    49   31   32 1
    50   31   52 1
    51   31   53 1
    52   32   33 1
    53   32   34 1
    54   32   38 1
    55   34   35 1
    56   34   36 1
    57   36   37 2
    58   38   39 2
    59   38   54 1
    60   39   55 1
@<TRIPOS>MOLECULE
ZINC05434216
   66    71     0     0     0
SMALL
USER_CHARGES
1-phenyl-N-[2-[4-(4-phenylphenyl)pyrimidin-2-yl]amino-4,8-dioxabicyclo[3.3.0]oct-6-yl]-methanesulfonamide
@<TRIPOS>ATOM
      1 C1         -4.4770    2.8145    8.7750 C.ar      1 <0>        -0.1078
      2 C2         -4.6586    1.7705    7.8873 C.ar      1 <0>        -0.1168
      3 C3         -4.1074    1.8358    6.6213 C.ar      1 <0>        -0.1035
      4 C4         -3.3746    2.9452    6.2429 C.ar      1 <0>        -0.0980
      5 C5         -3.1885    3.9869    7.1324 C.ar      1 <0>        -0.1041
      6 C6         -3.7441    3.9239    8.3966 C.ar      1 <0>        -0.1172
      7 C7         -2.7733    3.0162    4.8629 C.3       1 <0>        -0.5811
      8 S1         -3.9579    3.7878    3.7262 S.o2      1 <0>         2.6053
      9 O1         -4.1366    5.1572    4.0609 O.2       1 <0>        -0.9454
     10 O2         -5.0794    2.9362    3.5358 O.2       1 <0>        -0.9418
     11 N1         -3.1890    3.8081    2.2596 N.pl3     1 <0>        -1.1096
     12 C8         -2.8594    2.5486    1.5878 C.3       1 <0>         0.1174
     13 H1         -2.8114    1.7335    2.3099 H         1 <0>         0.1172
     14 C9         -3.8945    2.2339    0.4858 C.3       1 <0>         0.0338
     15 O3         -3.1235    1.6588   -0.5924 O.3       1 <0>        -0.3455
     16 C10        -1.9218    2.4515   -0.6580 C.3       1 <0>         0.0375
     17 H2         -2.0584    3.3859   -1.2023 H         1 <0>         0.1055
     18 C11        -1.5193    2.6763    0.8258 C.3       1 <0>         0.0435
     19 H3         -1.0298    3.6361    0.9913 H         1 <0>         0.1091
     20 O4         -0.6954    1.5536    1.1732 O.3       1 <0>        -0.3599
     21 C12        -0.0127    1.0858    0.0080 C.3       1 <0>         0.0456
     22 C13        -0.7709    1.6024   -1.2257 C.3       1 <0>         0.1375
     23 H4         -1.1642    0.7675   -1.8057 H         1 <0>         0.1244
     24 N2          0.1097    2.4280   -2.0558 N.pl3     1 <0>        -0.6926
     25 C14         0.9153    1.8349   -3.0124 C.ar      1 <0>         0.5729
     26 N3          0.8767    0.5186   -3.1631 N.ar      1 <0>        -0.5695
     27 C15         1.6315   -0.0862   -4.0666 C.ar      1 <0>         0.1978
     28 C16         2.4718    0.6712   -4.8632 C.ar      1 <0>        -0.2784
     29 C17         2.4913    2.0567   -4.6816 C.ar      1 <0>         0.2645
     30 N4          1.7004    2.5973   -3.7567 N.ar      1 <0>        -0.5647
     31 C18         3.3742    2.9119   -5.5099 C.ar      1 <0>        -0.0643
     32 C19         4.1985    2.3345   -6.4758 C.ar      1 <0>        -0.0827
     33 C20         5.0153    3.1298   -7.2487 C.ar      1 <0>        -0.1174
     34 C21         5.0261    4.5113   -7.0584 C.ar      1 <0>        -0.0221
     35 C22         4.2059    5.0883   -6.0892 C.ar      1 <0>        -0.1200
     36 C23         3.3851    4.2938   -5.3197 C.ar      1 <0>        -0.0650
     37 C24         5.9095    5.3670   -7.8871 C.ar      1 <0>        -0.0540
     38 C25         5.9179    6.7487   -7.7034 C.ar      1 <0>        -0.1072
     39 C26         6.7463    7.5395   -8.4735 C.ar      1 <0>        -0.1182
     40 C27         7.5587    6.9645   -9.4342 C.ar      1 <0>        -0.1148
     41 C28         7.5503    5.5944   -9.6248 C.ar      1 <0>        -0.1183
     42 C29         6.7303    4.7932   -8.8566 C.ar      1 <0>        -0.1073
     43 H5         -4.9073    2.7634    9.7642 H         1 <0>         0.1287
     44 H6         -5.2309    0.9036    8.1831 H         1 <0>         0.1306
     45 H7         -4.2490    1.0200    5.9279 H         1 <0>         0.1309
     46 H8         -2.6123    4.8517    6.8383 H         1 <0>         0.1303
     47 H9         -3.6019    4.7394    9.0902 H         1 <0>         0.1303
     48 H10        -2.5397    2.0096    4.5161 H         1 <0>         0.1422
     49 H11        -1.8602    3.6106    4.8946 H         1 <0>         0.1441
     50 H12        -2.9569    4.6540    1.8454 H         1 <0>         0.4211
     51 H13        -4.6305    1.5171    0.8501 H         1 <0>         0.1155
     52 H14        -4.3875    3.1484    0.1560 H         1 <0>         0.0779
     53 H15         0.0021   -0.0041    0.0020 H         1 <0>         0.0991
     54 H16         1.0080    1.4683    0.0003 H         1 <0>         0.0688
     55 H17         0.1282    3.3903   -1.9351 H         1 <0>         0.4145
     56 H18         1.5917   -1.1594   -4.1810 H         1 <0>         0.1719
     57 H19         3.0978    0.2026   -5.6082 H         1 <0>         0.1475
     58 H20         4.1932    1.2642   -6.6204 H         1 <0>         0.1329
     59 H21         5.6505    2.6832   -7.9993 H         1 <0>         0.1323
     60 H22         4.2147    6.1582   -5.9417 H         1 <0>         0.1307
     61 H23         2.7503    4.7407   -4.5689 H         1 <0>         0.1376
     62 H24         5.2807    7.1991   -6.9568 H         1 <0>         0.1263
     63 H25         6.7566    8.6097   -8.3293 H         1 <0>         0.1256
     64 H26         8.2018    7.5876  -10.0379 H         1 <0>         0.1241
     65 H27         8.1870    5.1508  -10.3760 H         1 <0>         0.1257
     66 H28         6.7243    3.7237   -9.0065 H         1 <0>         0.1266
@<TRIPOS>BOND
     1    1    6 ar
     2    1    2 ar
     3    1   43 1
     4    2    3 ar
     5    2   44 1
     6    3    4 ar
     7    3   45 1
     8    4    5 ar
     9    4    7 1
    10    5    6 ar
    11    5   46 1
    12    6   47 1
    13    7    8 1
    14    7   48 1
    15    7   49 1
    16    8    9 2
    17    8   10 2
    18    8   11 1
    19   11   12 1
    20   11   50 1
    21   12   13 1
    22   12   18 1
    23   12   14 1
    24   14   15 1
    25   14   51 1
    26   14   52 1
    27   15   16 1
    28   16   17 1
    29   16   22 1
    30   16   18 1
    31   18   19 1
    32   18   20 1
    33   20   21 1
    34   21   22 1
    35   21   53 1
    36   21   54 1
    37   22   23 1
    38   22   24 1
    39   24   25 1
    40   24   55 1
    41   25   30 ar
    42   25   26 ar
    43   26   27 ar
    44   27   28 ar
    45   27   56 1
    46   28   29 ar
    47   28   57 1
    48   29   30 ar
    49   29   31 1
    50   31   36 ar
    51   31   32 ar
    52   32   33 ar
    53   32   58 1
    54   33   34 ar
    55   33   59 1
    56   34   35 ar
    57   34   37 1
    58   35   36 ar
    59   35   60 1
    60   36   61 1
    61   37   42 ar
    62   37   38 ar
    63   38   39 ar
    64   38   62 1
    65   39   40 ar
    66   39   63 1
    67   40   41 ar
    68   40   64 1
    69   41   42 ar
    70   41   65 1
    71   42   66 1
@<TRIPOS>MOLECULE
ZINC10462872
   65    69     0     0     0
SMALL
USER_CHARGES
5-oxo-1-phenyl-N-[4-[[5-(2-phenylpropyl)-1,3,4-thiadiazol-2-yl]carbamoyl]phenyl]-pyrrolidine-3-carboxamide
@<TRIPOS>ATOM
      1 C1          1.0534   13.9490   -7.4419 C.3       1 <0>        -0.1519
      2 C2          2.5454   14.2849   -7.3974 C.3       1 <0>        -0.0462
      3 H1          3.0914   13.6010   -8.0473 H         1 <0>         0.0891
      4 C3          3.0575   14.1431   -5.9626 C.3       1 <0>        -0.0167
      5 C4          2.9605   12.7013   -5.5348 C.2       1 <0>         0.0742
      6 N1          3.8387   11.7243   -5.6441 N.2       1 <0>        -0.2518
      7 N2          3.5999   10.5571   -5.2304 N.2       1 <0>        -0.2801
      8 C5          2.4465   10.2403   -4.6581 C.2       1 <0>         0.2925
      9 S1          1.6167   11.8249   -4.7398 S.3       1 <0>        -0.0271
     10 N3          2.0058    9.0254   -4.1470 N.am      1 <0>        -0.6102
     11 C6          2.8074    7.9431   -4.1961 C.2       1 <0>         0.5595
     12 O1          3.9163    8.0296   -4.6875 O.2       1 <0>        -0.4606
     13 C7          2.3395    6.6532   -3.6535 C.ar      1 <0>        -0.1517
     14 C8          3.1695    5.5298   -3.7035 C.ar      1 <0>        -0.0273
     15 C9          2.7296    4.3278   -3.1967 C.ar      1 <0>        -0.1497
     16 C10         1.4602    4.2304   -2.6356 C.ar      1 <0>         0.1808
     17 C11         0.6291    5.3453   -2.5893 C.ar      1 <0>        -0.1274
     18 C12         1.0650    6.5519   -3.0886 C.ar      1 <0>        -0.0623
     19 N4          1.0176    3.0112   -2.1236 N.am      1 <0>        -0.6706
     20 C13         0.1988    2.9871   -1.0534 C.2       1 <0>         0.5215
     21 O2         -0.0766    4.0181   -0.4773 O.2       1 <0>        -0.4990
     22 C14        -0.3746    1.6790   -0.5727 C.3       1 <0>        -0.1244
     23 H2         -1.0065    1.2277   -1.3377 H         1 <0>         0.1417
     24 C15         0.7485    0.7085   -0.1393 C.3       1 <0>        -0.1464
     25 C16         0.8955    0.9466    1.3474 C.2       1 <0>         0.5150
     26 O3          1.8448    0.5969    2.0164 O.2       1 <0>        -0.4996
     27 N5         -0.1836    1.6032    1.8164 N.am      1 <0>        -0.5551
     28 C17        -1.1537    1.8688    0.7477 C.3       1 <0>         0.1084
     29 C18        -0.3561    1.9837    3.1518 C.ar      1 <0>         0.1642
     30 C19        -1.5029    2.6648    3.5387 C.ar      1 <0>        -0.1549
     31 C20        -1.6730    3.0336    4.8588 C.ar      1 <0>        -0.0924
     32 C21        -0.6976    2.7357    5.7926 C.ar      1 <0>        -0.1436
     33 C22         0.4482    2.0630    5.4094 C.ar      1 <0>        -0.0913
     34 C23         0.6216    1.6861    4.0921 C.ar      1 <0>        -0.1581
     35 C24         2.7558   15.7009   -7.8681 C.ar      1 <0>        -0.0785
     36 C25         2.1526   16.7489   -7.1981 C.ar      1 <0>        -0.1146
     37 C26         2.3491   18.0481   -7.6273 C.ar      1 <0>        -0.1179
     38 C27         3.1410   18.2987   -8.7323 C.ar      1 <0>        -0.1212
     39 C28         3.7404   17.2504   -9.4052 C.ar      1 <0>        -0.1171
     40 C29         3.5474   15.9515   -8.9734 C.ar      1 <0>        -0.1120
     41 H3          0.9013   12.9247   -7.1014 H         1 <0>         0.0576
     42 H4          0.5074   14.6328   -6.7920 H         1 <0>         0.0622
     43 H5          0.6886   14.0500   -8.4641 H         1 <0>         0.0647
     44 H6          2.4529   14.7606   -5.2983 H         1 <0>         0.0985
     45 H7          4.0970   14.4673   -5.9141 H         1 <0>         0.1109
     46 H8          1.1212    8.9564   -3.7550 H         1 <0>         0.4278
     47 H9          4.1548    5.6045   -4.1396 H         1 <0>         0.1467
     48 H10         3.3705    3.4593   -3.2351 H         1 <0>         0.1396
     49 H11        -0.3573    5.2652   -2.1570 H         1 <0>         0.1443
     50 H12         0.4211    7.4180   -3.0484 H         1 <0>         0.1300
     51 H13         1.2991    2.1804   -2.5378 H         1 <0>         0.4172
     52 H14         0.4566   -0.3237   -0.3333 H         1 <0>         0.1287
     53 H15         1.6779    0.9449   -0.6573 H         1 <0>         0.1114
     54 H16        -1.5266    2.8904    0.8221 H         1 <0>         0.1081
     55 H17        -1.9799    1.1600    0.8034 H         1 <0>         0.0964
     56 H18        -2.2629    2.9020    2.8089 H         1 <0>         0.1253
     57 H19        -2.5668    3.5591    5.1612 H         1 <0>         0.1273
     58 H20        -0.8311    3.0288    6.8235 H         1 <0>         0.1240
     59 H21         1.2082    1.8319    6.1411 H         1 <0>         0.1271
     60 H22         1.5167    1.1607    3.7935 H         1 <0>         0.1540
     61 H23         1.5305   16.5528   -6.3373 H         1 <0>         0.1218
     62 H24         1.8811   18.8672   -7.1014 H         1 <0>         0.1223
     63 H25         3.2918   19.3135   -9.0697 H         1 <0>         0.1215
     64 H26         4.3591   17.4462  -10.2684 H         1 <0>         0.1227
     65 H27         4.0153   15.1324   -9.4993 H         1 <0>         0.1231
@<TRIPOS>BOND
     1    1    2 1
     2    1   41 1
     3    1   42 1
     4    1   43 1
     5    2    3 1
     6    2    4 1
     7    2   35 1
     8    4    5 1
     9    4   44 1
    10    4   45 1
    11    5    9 1
    12    5    6 2
    13    6    7 1
    14    7    8 2
    15    8    9 1
    16    8   10 1
    17   10   11 am
    18   10   46 1
    19   11   12 2
    20   11   13 1
    21   13   18 ar
    22   13   14 ar
    23   14   15 ar
    24   14   47 1
    25   15   16 ar
    26   15   48 1
    27   16   17 ar
    28   16   19 1
    29   17   18 ar
    30   17   49 1
    31   18   50 1
    32   19   20 am
    33   19   51 1
    34   20   21 2
    35   20   22 1
    36   22   23 1
    37   22   28 1
    38   22   24 1
    39   24   25 1
    40   24   52 1
    41   24   53 1
    42   25   26 2
    43   25   27 am
    44   27   28 1
    45   27   29 1
    46   28   54 1
    47   28   55 1
    48   29   34 ar
    49   29   30 ar
    50   30   31 ar
    51   30   56 1
    52   31   32 ar
    53   31   57 1
    54   32   33 ar
    55   32   58 1
    56   33   34 ar
    57   33   59 1
    58   34   60 1
    59   35   40 ar
    60   35   36 ar
    61   36   37 ar
    62   36   61 1
    63   37   38 ar
    64   37   62 1
    65   38   39 ar
    66   38   63 1
    67   39   40 ar
    68   39   64 1
    69   40   65 1
@<TRIPOS>MOLECULE
ZINC20681805
   71    76     0     0     0
SMALL
USER_CHARGES
N-cyclopropyl-3-[(3,5-dimethylphenyl)carbamothioylamino]-4-(oxoBLAHyl)benzamide
@<TRIPOS>ATOM
      1 C1         -2.7719    8.9836    6.2367 C.3       1 <0>        -0.1142
      2 C2         -1.5220    8.1601    6.0625 C.ar      1 <0>        -0.0764
      3 C3         -0.4740    8.2983    6.9541 C.ar      1 <0>        -0.1171
      4 C4          0.6746    7.5441    6.7980 C.ar      1 <0>        -0.0715
      5 C5          0.7782    6.6497    5.7508 C.ar      1 <0>        -0.0799
      6 C6         -0.2725    6.5085    4.8537 C.ar      1 <0>         0.1400
      7 C7         -1.4222    7.2719    5.0096 C.ar      1 <0>        -0.1296
      8 N1         -0.1708    5.6034    3.7920 N.pl3     1 <0>        -0.6355
      9 C8          0.3700    4.3856    3.9941 C.2       1 <0>         0.5608
     10 S1          0.8034    3.8932    5.5754 S.2       1 <0>        -0.6005
     11 N2          0.5695    3.5554    2.9513 N.pl3     1 <0>        -0.6276
     12 C9          1.0457    2.2556    3.1715 C.ar      1 <0>         0.1528
     13 C10         2.1292    2.0478    4.0037 C.ar      1 <0>        -0.0030
     14 C11         2.6008    0.7500    4.2210 C.ar      1 <0>        -0.1287
     15 C12         1.9752   -0.3325    3.5963 C.ar      1 <0>        -0.0699
     16 C13         0.8923   -0.1214    2.7719 C.ar      1 <0>        -0.1523
     17 C14         0.4248    1.1688    2.5500 C.ar      1 <0>         0.1086
     18 N3         -0.6675    1.3780    1.7117 N.pl3     1 <0>        -0.5040
     19 C15        -0.3892    0.8946    0.3555 C.3       1 <0>         0.0570
     20 C16        -1.5592    1.1753   -0.5757 C.3       1 <0>        -0.1010
     21 H1         -1.3170    0.7051   -1.5402 H         1 <0>         0.1040
     22 C17        -2.8539    0.5785   -0.0168 C.3       1 <0>        -0.1210
     23 C18        -3.0690    1.1687    1.3816 C.3       1 <0>        -0.0534
     24 H2         -4.0293    0.8273    1.7955 H         1 <0>         0.1179
     25 C19        -1.8786    0.7521    2.2613 C.3       1 <0>         0.0675
     26 C20        -3.0609    2.6780    1.2910 C.2       1 <0>         0.2104
     27 C21        -3.7822    3.3657    2.2154 C.2       1 <0>        -0.2485
     28 C22        -3.7697    4.7649    2.2293 C.2       1 <0>         0.0039
     29 C23        -3.0008    5.4259    1.3168 C.2       1 <0>        -0.2756
     30 C24        -2.2659    4.6863    0.3797 C.2       1 <0>         0.5060
     31 O1         -1.5279    5.2646   -0.4019 O.2       1 <0>        -0.5563
     32 N4         -2.3671    3.3350    0.3328 N.am      1 <0>        -0.4705
     33 C25        -1.7494    2.6642   -0.8117 C.3       1 <0>         0.1021
     34 C26         3.7575    0.5233    5.1082 C.2       1 <0>         0.5640
     35 O2          4.3014    1.4657    5.6509 O.2       1 <0>        -0.5286
     36 N5          4.2114   -0.7284    5.3171 N.am      1 <0>        -0.7301
     37 C27         5.3600   -0.9536    6.1981 C.3       1 <0>        -0.0206
     38 C28         6.4293   -1.9410    5.7264 C.3       1 <0>        -0.1464
     39 C29         5.4813   -2.3257    6.8640 C.3       1 <0>        -0.1402
     40 C30         1.8142    7.6981    7.7720 C.3       1 <0>        -0.1149
     41 H3         -2.6665    9.6271    7.1226 H         1 <0>         0.0669
     42 H4         -3.6356    8.3155    6.3694 H         1 <0>         0.0688
     43 H5         -2.9259    9.6093    5.3452 H         1 <0>         0.0689
     44 H6         -0.5525    8.9971    7.7738 H         1 <0>         0.1225
     45 H7          1.6755    6.0610    5.6295 H         1 <0>         0.1403
     46 H8         -2.2393    7.1676    4.3111 H         1 <0>         0.1214
     47 H9         -0.5322    5.8856    2.7921 H         1 <0>         0.4292
     48 H10         0.3586    3.8979    1.9275 H         1 <0>         0.4324
     49 H11         2.6104    2.8862    4.4853 H         1 <0>         0.1627
     50 H12         2.3389   -1.3356    3.7632 H         1 <0>         0.1278
     51 H13         0.4079   -0.9598    2.2935 H         1 <0>         0.1310
     52 H14         0.5040    1.4017   -0.0384 H         1 <0>         0.0852
     53 H15        -0.2128   -0.1908    0.3821 H         1 <0>         0.0540
     54 H16        -3.6935    0.8406   -0.6774 H         1 <0>         0.0801
     55 H17        -2.7590   -0.5160    0.0389 H         1 <0>         0.0854
     56 H18        -1.7629   -0.3418    2.2511 H         1 <0>         0.0600
     57 H19        -2.0317    1.0950    3.2952 H         1 <0>         0.0900
     58 H20        -4.3699    2.8280    2.9446 H         1 <0>         0.1396
     59 H21        -4.3591    5.3122    2.9501 H         1 <0>         0.1326
     60 H22        -2.9585    6.5051    1.3165 H         1 <0>         0.1459
     61 H23        -0.7718    3.1343   -0.9944 H         1 <0>         0.1001
     62 H24        -2.3988    2.8168   -1.6864 H         1 <0>         0.0834
     63 H25         3.7194   -1.5809    4.8261 H         1 <0>         0.4013
     64 H26         5.3394    0.0933    6.5350 H         1 <0>         0.1610
     65 H27         6.2693   -2.1747    4.6635 H         1 <0>         0.1028
     66 H28         7.4254   -1.4931    5.8574 H         1 <0>         0.1090
     67 H29         5.6937   -2.1958    7.9355 H         1 <0>         0.1101
     68 H30         4.5376   -2.8774    6.7416 H         1 <0>         0.1030
     69 H31         2.6336    7.0216    7.4875 H         1 <0>         0.0676
     70 H32         1.4669    7.4475    8.7852 H         1 <0>         0.0708
     71 H33         2.1738    8.7375    7.7542 H         1 <0>         0.0686
@<TRIPOS>BOND
     1    1    2 1
     2    1   41 1
     3    1   42 1
     4    1   43 1
     5    2    7 ar
     6    2    3 ar
     7    3    4 ar
     8    3   44 1
     9    4    5 ar
    10    4   40 1
    11    5    6 ar
    12    5   45 1
    13    6    7 ar
    14    6    8 1
    15    7   46 1
    16    8    9 1
    17    8   47 1
    18    9   10 2
    19    9   11 1
    20   11   12 1
    21   11   48 1
    22   12   17 ar
    23   12   13 ar
    24   13   14 ar
    25   13   49 1
    26   14   15 ar
    27   14   34 1
    28   15   16 ar
    29   15   50 1
    30   16   17 ar
    31   16   51 1
    32   17   18 1
    33   18   25 1
    34   18   19 1
    35   19   20 1
    36   19   52 1
    37   19   53 1
    38   20   21 1
    39   20   33 1
    40   20   22 1
    41   22   23 1
    42   22   54 1
    43   22   55 1
    44   23   24 1
    45   23   25 1
    46   23   26 1
    47   25   56 1
    48   25   57 1
    49   26   32 1
    50   26   27 2
    51   27   28 1
    52   27   58 1
    53   28   29 2
    54   28   59 1
    55   29   30 1
    56   29   60 1
    57   30   31 2
    58   30   32 am
    59   32   33 1
    60   33   61 1
    61   33   62 1
    62   34   35 2
    63   34   36 am
    64   36   37 1
    65   36   63 1
    66   37   39 1
    67   37   38 1
    68   37   64 1
    69   38   39 1
    70   38   65 1
    71   38   66 1
    72   39   67 1
    73   39   68 1
    74   40   69 1
    75   40   70 1
    76   40   71 1
@<TRIPOS>MOLECULE
ZINC39836484
   70    73     0     0     0
SMALL
USER_CHARGES

@<TRIPOS>ATOM
      1 C1         -0.0187    1.5258    0.0104 C.3       1 <0>        -0.1488
      2 C2          0.0021   -0.0041    0.0020 C.3       1 <0>        -0.0627
      3 C3          0.7421   -0.5109    1.2415 C.3       1 <0>        -0.1456
      4 C4         -1.4333   -0.5336    0.0129 C.3       1 <0>        -0.1449
      5 C5          0.7182   -0.4975   -1.2568 C.3       1 <0>        -0.0683
      6 H1          0.7339   -1.5873   -1.2644 H         1 <0>         0.0755
      7 C6         -0.0173    0.0135   -2.4989 C.3       1 <0>        -0.1174
      8 C7          0.5378   -0.6696   -3.7507 C.3       1 <0>        -0.0587
      9 C8          2.0516   -0.5158   -3.7595 C.2       1 <0>        -0.0612
     10 C9          2.7313   -0.1987   -2.6365 C.2       1 <0>        -0.2237
     11 S1          4.4257   -0.1351   -3.1401 S.3       1 <0>         0.2906
     12 C10         4.2554   -0.5120   -4.7676 C.2       1 <0>         0.0440
     13 C11         2.8901   -0.6887   -4.9329 C.2       1 <0>        -0.2412
     14 C12         2.3171   -1.0350   -6.2369 C.2       1 <0>         0.5868
     15 O1          1.9742   -0.1546   -7.0042 O.2       1 <0>        -0.5239
     16 N1          2.1698   -2.3284   -6.5863 N.am      1 <0>        -0.7127
     17 C13         1.5970   -2.6745   -7.8895 C.3       1 <0>         0.1397
     18 H2          1.8978   -1.9351   -8.6318 H         1 <0>         0.1147
     19 C14         0.0632   -2.7147   -7.7886 C.3       1 <0>        -0.1409
     20 C15        -0.5314   -3.3831   -9.0516 C.3       1 <0>        -0.5732
     21 S2          0.8171   -4.5156   -9.5820 S.o2      1 <0>         2.3774
     22 O2          1.2801   -4.1146  -10.8643 O.2       1 <0>        -0.9280
     23 O3          0.4001   -5.8586   -9.3778 O.2       1 <0>        -0.9304
     24 C16         2.0907   -4.0845   -8.3226 C.3       1 <0>        -0.5966
     25 N2          5.2501   -0.6208   -5.7251 N.am      1 <0>        -0.6177
     26 C17         6.5378   -0.4136   -5.3855 C.2       1 <0>         0.5478
     27 O4          6.8266   -0.1308   -4.2373 O.2       1 <0>        -0.5062
     28 C18         7.5878   -0.5284   -6.3961 C.2       1 <0>        -0.2375
     29 C19         8.8779   -0.3208   -6.0560 C.2       1 <0>         0.0208
     30 C20         9.9336   -0.4363   -7.0721 C.ar      1 <0>        -0.1296
     31 C21         9.6037   -0.7557   -8.3945 C.ar      1 <0>        -0.0533
     32 C22        10.5962   -0.8627   -9.3423 C.ar      1 <0>        -0.1561
     33 C23        11.9243   -0.6541   -8.9882 C.ar      1 <0>         0.1493
     34 C24        12.2573   -0.3366   -7.6764 C.ar      1 <0>        -0.2140
     35 C25        11.2718   -0.2215   -6.7221 C.ar      1 <0>        -0.0439
     36 O5         12.8993   -0.7612   -9.9265 O.3       1 <0>        -0.3130
     37 C26        14.2426   -0.5343   -9.4952 C.3       1 <0>         0.0240
     38 C27         2.1576    0.0378   -1.2729 C.3       1 <0>        -0.0333
     39 H3          1.0039    1.9031    0.0027 H         1 <0>         0.0588
     40 H4         -0.5459    1.8868   -0.8726 H         1 <0>         0.0581
     41 H5         -0.5289    1.8773    0.9072 H         1 <0>         0.0545
     42 H6          0.2319   -0.1594    2.1383 H         1 <0>         0.0553
     43 H7          0.7568   -1.6008    1.2356 H         1 <0>         0.0550
     44 H8          1.7647   -0.1336    1.2338 H         1 <0>         0.0577
     45 H9         -1.9605   -0.1726   -0.8702 H         1 <0>         0.0587
     46 H10        -1.4185   -1.6235    0.0069 H         1 <0>         0.0546
     47 H11        -1.9435   -0.1821    0.9097 H         1 <0>         0.0553
     48 H12        -1.0806   -0.2081   -2.4069 H         1 <0>         0.0745
     49 H13         0.1206    1.0915   -2.5835 H         1 <0>         0.0692
     50 H14         0.2779   -1.7281   -3.7354 H         1 <0>         0.0752
     51 H15         0.1174   -0.2004   -4.6403 H         1 <0>         0.0739
     52 H16         2.4430   -3.0301   -5.9748 H         1 <0>         0.4082
     53 H17        -0.2265   -3.2858   -6.9065 H         1 <0>         0.0913
     54 H18        -0.3206   -1.6982   -7.7024 H         1 <0>         0.1032
     55 H19        -1.4325   -3.9443   -8.8041 H         1 <0>         0.1459
     56 H20        -0.7371   -2.6397   -9.8218 H         1 <0>         0.1435
     57 H21         3.0842   -4.0346   -8.7681 H         1 <0>         0.1483
     58 H22         2.0706   -4.7832   -7.4862 H         1 <0>         0.1462
     59 H23         5.0200   -0.8461   -6.6401 H         1 <0>         0.4189
     60 H24         7.3316   -0.7793   -7.4149 H         1 <0>         0.1348
     61 H25         9.1341   -0.0699   -5.0372 H         1 <0>         0.1396
     62 H26         8.5723   -0.9183   -8.6705 H         1 <0>         0.1355
     63 H27        10.3427   -1.1094  -10.3628 H         1 <0>         0.1372
     64 H28        13.2906   -0.1758   -7.4063 H         1 <0>         0.1349
     65 H29        11.5311    0.0299   -5.7043 H         1 <0>         0.1340
     66 H30        14.9203   -0.6508  -10.3408 H         1 <0>         0.1042
     67 H31        14.3302    0.4761   -9.0958 H         1 <0>         0.0590
     68 H32        14.5018   -1.2552   -8.7198 H         1 <0>         0.0590
     69 H33         2.1547    1.1063   -1.0573 H         1 <0>         0.0867
     70 H34         2.7531   -0.4867   -0.5256 H         1 <0>         0.0813
@<TRIPOS>BOND
     1    1    2 1
     2    1   39 1
     3    1   40 1
     4    1   41 1
     5    2    3 1
     6    2    4 1
     7    2    5 1
     8    3   42 1
     9    3   43 1
    10    3   44 1
    11    4   45 1
    12    4   46 1
    13    4   47 1
    14    5    6 1
    15    5   38 1
    16    5    7 1
    17    7    8 1
    18    7   48 1
    19    7   49 1
    20    8    9 1
    21    8   50 1
    22    8   51 1
    23    9   13 1
    24    9   10 2
    25   10   11 1
    26   10   38 1
    27   11   12 1
    28   12   13 2
    29   12   25 1
    30   13   14 1
    31   14   15 2
    32   14   16 am
    33   16   17 1
    34   16   52 1
    35   17   18 1
    36   17   24 1
    37   17   19 1
    38   19   20 1
    39   19   53 1
    40   19   54 1
    41   20   21 1
    42   20   55 1
    43   20   56 1
    44   21   22 2
    45   21   23 2
    46   21   24 1
    47   24   57 1
    48   24   58 1
    49   25   26 am
    50   25   59 1
    51   26   27 2
    52   26   28 1
    53   28   29 2
    54   28   60 1
    55   29   30 1
    56   29   61 1
    57   30   35 ar
    58   30   31 ar
    59   31   32 ar
    60   31   62 1
    61   32   33 ar
    62   32   63 1
    63   33   34 ar
    64   33   36 1
    65   34   35 ar
    66   34   64 1
    67   35   65 1
    68   36   37 1
    69   37   66 1
    70   37   67 1
    71   37   68 1
    72   38   69 1
    73   38   70 1
@<TRIPOS>MOLECULE
ZINC02309530
   59    62     0     0     0
SMALL
USER_CHARGES

@<TRIPOS>ATOM
      1 C1         -5.1670    1.5327    1.4083 C.3       1 <0>        -0.1998
      2 C2         -5.0865    0.0279    1.4034 C.2       1 <0>         0.3904
      3 O1         -5.9274   -0.6261    1.9825 O.2       1 <0>        -0.4468
      4 C3         -3.9872   -0.6480    0.6956 C.ar      1 <0>        -0.1495
      5 C4         -3.0123    0.1039    0.0313 C.ar      1 <0>        -0.0865
      6 C5         -1.9837   -0.5330   -0.6308 C.ar      1 <0>        -0.1092
      7 C6         -1.9117   -1.9141   -0.6416 C.ar      1 <0>        -0.1150
      8 C7         -2.8748   -2.6713    0.0150 C.ar      1 <0>         0.1312
      9 C8         -3.9097   -2.0432    0.6891 C.ar      1 <0>        -0.0720
     10 N1         -2.7961   -4.0686   -0.0003 N.am      1 <0>        -0.6636
     11 C9         -3.9158   -4.8080    0.1265 C.2       1 <0>         0.5325
     12 O2         -5.0001   -4.2655    0.1605 O.2       1 <0>        -0.4847
     13 C10        -3.8206   -6.3087    0.2260 C.3       1 <0>        -0.1751
     14 S1         -5.4854   -7.0109    0.3865 S.3       1 <0>         0.0379
     15 C11        -5.2072   -8.7477    0.4904 C.2       1 <0>         0.1488
     16 C12        -6.2613   -9.5981    0.6150 C.2       1 <0>        -0.0876
     17 C13        -6.0537  -11.0819    0.6953 C.3       1 <0>         0.0720
     18 H1         -6.7178  -11.4950    1.4545 H         1 <0>         0.1029
     19 C14        -4.6269  -11.4137    1.0530 C.2       1 <0>        -0.2620
     20 C15        -4.3490  -12.7055    1.5327 C.2       1 <0>         0.3941
     21 O3         -5.2574  -13.5024    1.6607 O.2       1 <0>        -0.4463
     22 C16        -2.9478  -13.1198    1.8902 C.3       1 <0>        -0.1674
     23 C17        -1.9585  -12.3158    1.0401 C.3       1 <0>        -0.1113
     24 C18        -2.2176  -10.8260    1.2743 C.3       1 <0>        -0.0955
     25 C19        -3.6456  -10.4971    0.9139 C.2       1 <0>         0.2174
     26 N2         -3.9246   -9.2423    0.4398 N.pl3     1 <0>        -0.6397
     27 C20        -6.3839  -11.6999   -0.6389 C.ar      1 <0>        -0.0218
     28 C21        -5.5817  -11.4461   -1.7359 C.ar      1 <0>        -0.1080
     29 C22        -5.8845  -12.0129   -2.9595 C.ar      1 <0>        -0.0886
     30 C23        -6.9895  -12.8341   -3.0864 C.ar      1 <0>        -0.1206
     31 C24        -7.7910  -13.0886   -1.9896 C.ar      1 <0>        -0.0718
     32 C25        -7.4856  -12.5251   -0.7646 C.ar      1 <0>        -0.1658
     33 C26        -8.3565  -12.8068    0.4326 C.3       1 <0>         0.4983
     34 F1         -9.4660  -13.5606    0.0351 F         1 <0>        -0.1802
     35 F2         -7.6231  -13.5228    1.3847 F         1 <0>        -0.1521
     36 F3         -8.7890  -11.5984    0.9893 F         1 <0>        -0.1775
     37 C27        -7.5907   -9.0688    0.6708 C.1       1 <0>         0.2474
     38 N3         -8.6453   -8.6489    0.7150 N.1       1 <0>        -0.3886
     39 H2         -6.0410    1.8480    1.9782 H         1 <0>         0.0871
     40 H3         -4.2671    1.9432    1.8664 H         1 <0>         0.0949
     41 H4         -5.2510    1.8954    0.3839 H         1 <0>         0.0950
     42 H5         -3.0652    1.1826    0.0367 H         1 <0>         0.1366
     43 H6         -1.2319    0.0489   -1.1431 H         1 <0>         0.1368
     44 H7         -1.1039   -2.4064   -1.1627 H         1 <0>         0.1325
     45 H8         -4.6562   -2.6299    1.2039 H         1 <0>         0.1540
     46 H9         -1.9358   -4.5049   -0.1021 H         1 <0>         0.4154
     47 H10        -3.3450   -6.7029   -0.6721 H         1 <0>         0.1263
     48 H11        -3.2269   -6.5779    1.0996 H         1 <0>         0.1299
     49 H12        -2.7668  -12.9210    2.9465 H         1 <0>         0.1015
     50 H13        -2.8198  -14.1837    1.6906 H         1 <0>         0.0991
     51 H14        -0.9382  -12.5610    1.3351 H         1 <0>         0.0885
     52 H15        -2.1049  -12.5518   -0.0140 H         1 <0>         0.0769
     53 H16        -2.0441  -10.5881    2.3238 H         1 <0>         0.1044
     54 H17        -3.2131   -8.6971    0.0690 H         1 <0>         0.4158
     55 H18        -4.7185  -10.8046   -1.6367 H         1 <0>         0.1250
     56 H19        -5.2582  -11.8140   -3.8166 H         1 <0>         0.1312
     57 H20        -7.2266  -13.2765   -4.0427 H         1 <0>         0.1348
     58 H21        -8.6544  -13.7298   -2.0888 H         1 <0>         0.1388
     59 H22        -1.5420  -10.2381    0.6530 H         1 <0>         0.0896
@<TRIPOS>BOND
     1    1    2 1
     2    1   39 1
     3    1   40 1
     4    1   41 1
     5    2    3 2
     6    2    4 1
     7    4    9 ar
     8    4    5 ar
     9    5    6 ar
    10    5   42 1
    11    6    7 ar
    12    6   43 1
    13    7    8 ar
    14    7   44 1
    15    8    9 ar
    16    8   10 1
    17    9   45 1
    18   10   11 am
    19   10   46 1
    20   11   12 2
    21   11   13 1
    22   13   14 1
    23   13   47 1
    24   13   48 1
    25   14   15 1
    26   15   26 1
    27   15   16 2
    28   16   17 1
    29   16   37 1
    30   17   18 1
    31   17   19 1
    32   17   27 1
    33   19   25 2
    34   19   20 1
    35   20   21 2
    36   20   22 1
    37   22   23 1
    38   22   49 1
    39   22   50 1
    40   23   24 1
    41   23   51 1
    42   23   52 1
    43   24   25 1
    44   24   53 1
    45   24   59 1
    46   25   26 1
    47   26   54 1
    48   27   32 ar
    49   27   28 ar
    50   28   29 ar
    51   28   55 1
    52   29   30 ar
    53   29   56 1
    54   30   31 ar
    55   30   57 1
    56   31   32 ar
    57   31   58 1
    58   32   33 1
    59   33   34 1
    60   33   35 1
    61   33   36 1
    62   37   38 3
@<TRIPOS>MOLECULE
ZINC04996636
   38    42     0     0     0
SMALL
USER_CHARGES
(2,4-dichlorophenyl)methyleneaminoBLAHdione
@<TRIPOS>ATOM
      1 C1         -5.9309   -1.1763    0.4733 C.ar      1 <0>        -0.1122
      2 C2         -4.7928   -0.4053    0.3628 C.ar      1 <0>        -0.0565
      3 C3         -3.5448   -1.0207    0.2413 C.ar      1 <0>        -0.0551
      4 C4         -3.4590   -2.4164    0.2273 C.ar      1 <0>         0.0018
      5 C5         -4.6056   -3.1758    0.3435 C.ar      1 <0>        -0.1114
      6 C6         -5.8392   -2.5581    0.4636 C.ar      1 <0>        -0.0056
      7 Cl1        -7.2774   -3.5204    0.6031 Cl        1 <0>        -0.0490
      8 Cl2        -1.9138   -3.1918    0.0702 Cl        1 <0>        -0.0055
      9 C7         -2.3241   -0.2026    0.1223 C.2       1 <0>         0.1140
     10 N1         -1.1661   -0.7774    0.0096 N.2       1 <0>        -0.2273
     11 N2          0.0021   -0.0042    0.0032 N.am      1 <0>        -0.4291
     12 C8          1.2262   -0.5435    0.0013 C.2       1 <0>         0.5527
     13 O1          1.4673   -1.7316    0.0040 O.2       1 <0>        -0.4465
     14 C9          2.2626    0.5568   -0.0051 C.3       1 <0>        -0.1134
     15 H1          2.9578    0.4921   -0.8421 H         1 <0>         0.1456
     16 C10         2.9541    0.5789    1.4001 C.3       1 <0>        -0.0188
     17 H2          3.3751   -0.3627    1.7526 H         1 <0>         0.1214
     18 C11         3.9028    1.7873    1.3042 C.2       1 <0>        -0.1512
     19 C12         3.1670    2.9107    1.2945 C.2       1 <0>        -0.1540
     20 C13         1.6906    2.4877    1.3978 C.3       1 <0>        -0.0204
     21 H3          0.9879    3.2436    1.7483 H         1 <0>         0.1180
     22 C14         1.4018    1.8573   -0.0067 C.3       1 <0>        -0.1214
     23 H4          1.6149    2.5212   -0.8446 H         1 <0>         0.1433
     24 C15        -0.0160    1.3333   -0.0011 C.2       1 <0>         0.5161
     25 O2         -1.0155    2.0195   -0.0050 O.2       1 <0>        -0.4797
     26 C16         1.8263    1.2060    2.2533 C.3       1 <0>        -0.1535
     27 C17         0.6858    0.4517    2.8648 C.3       1 <0>        -0.1717
     28 C18         1.7353    1.1475    3.7463 C.3       1 <0>        -0.1384
     29 H5         -6.8962   -0.7012    0.5672 H         1 <0>         0.1482
     30 H6         -4.8663    0.6722    0.3699 H         1 <0>         0.1513
     31 H7         -4.5411   -4.2538    0.3366 H         1 <0>         0.1494
     32 H8         -2.3935    0.8752    0.1290 H         1 <0>         0.1737
     33 H9          4.9804    1.7422    1.2471 H         1 <0>         0.1407
     34 H10         3.5314    3.9257    1.2373 H         1 <0>         0.1446
     35 H11        -0.3051    0.9022    2.8087 H         1 <0>         0.0942
     36 H12         0.7135   -0.6366    2.8106 H         1 <0>         0.1000
     37 H13         2.4522    0.5162    4.2713 H         1 <0>         0.1032
     38 H14         1.4357    2.0555    4.2696 H         1 <0>         0.1027
@<TRIPOS>BOND
     1    1    6 ar
     2    1    2 ar
     3    1   29 1
     4    2    3 ar
     5    2   30 1
     6    3    4 ar
     7    3    9 1
     8    4    5 ar
     9    4    8 1
    10    5    6 ar
    11    5   31 1
    12    6    7 1
    13    9   10 2
    14    9   32 1
    15   10   11 1
    16   11   24 am
    17   11   12 am
    18   12   13 2
    19   12   14 1
    20   14   15 1
    21   14   22 1
    22   14   16 1
    23   16   17 1
    24   16   26 1
    25   16   18 1
    26   18   19 2
    27   18   33 1
    28   19   20 1
    29   19   34 1
    30   20   21 1
    31   20   22 1
    32   20   26 1
    33   22   23 1
    34   22   24 1
    35   24   25 2
    36   26   28 1
    37   26   27 1
    38   27   28 1
    39   27   35 1
    40   27   36 1
    41   28   37 1
    42   28   38 1
@<TRIPOS>MOLECULE
ZINC01587000
   29    32     0     0     0
SMALL
USER_CHARGES
7-benzothiazol-2-ylsulfanyl-9$l^{6}-thia-8-azabicyclo[4.3.0]nona-2,4,7,10-tetraene 9,9-dioxide
@<TRIPOS>ATOM
      1 C1         -0.0126    1.0758    0.0080 C.ar      1 <0>        -0.0828
      2 C2         -1.2259    1.7409    0.0174 C.ar      1 <0>        -0.0810
      3 C3         -1.2444    3.1284    0.0302 C.ar      1 <0>         0.0079
      4 C4         -0.0676    3.8188    0.0223 C.ar      1 <0>        -0.6078
      5 C5          1.1768    3.1737    0.0074 C.ar      1 <0>        -0.1116
      6 C6          1.1761    1.7701    0.0003 C.ar      1 <0>        -0.0381
      7 C7          2.2961    4.1274    0.0017 C.2       1 <0>         0.2337
      8 N1          2.0447    5.3985    0.0105 N.2       1 <0>        -0.8250
      9 S1          0.3767    5.5342    0.0268 S.o2      1 <0>         2.5682
     10 O1         -0.0248    6.0888   -1.2184 O.2       1 <0>        -0.9222
     11 O2         -0.0022    6.0764    1.2845 O.2       1 <0>        -0.9222
     12 S2          3.9601    3.5483   -0.0162 S.3       1 <0>         0.3280
     13 C8          4.8194    5.0866   -0.0167 C.2       1 <0>         0.0268
     14 N2          6.1144    5.3070   -0.0274 N.2       1 <0>        -0.4573
     15 C9          6.6384    6.5517   -0.0270 C.ar      1 <0>         0.0658
     16 C10         8.0025    6.9246   -0.0382 C.ar      1 <0>        -0.0509
     17 C11         8.3673    8.2456   -0.0364 C.ar      1 <0>        -0.1164
     18 C12         7.4200    9.2593   -0.0237 C.ar      1 <0>        -0.0833
     19 C13         6.0767    8.9308   -0.0125 C.ar      1 <0>        -0.0704
     20 C14         5.7020    7.6105   -0.0142 C.ar      1 <0>        -0.1806
     21 S3          4.1509    6.7441   -0.0107 S.3       1 <0>         0.1733
     22 H1          0.0021   -0.0041    0.0020 H         1 <0>         0.1508
     23 H2         -2.1515    1.1844    0.0187 H         1 <0>         0.1519
     24 H3         -2.1851    3.6589    0.0416 H         1 <0>         0.1485
     25 H4          2.1126    1.2322   -0.0115 H         1 <0>         0.1479
     26 H5          8.7652    6.1600   -0.0486 H         1 <0>         0.1342
     27 H6          9.4160    8.5035   -0.0448 H         1 <0>         0.1366
     28 H7          7.7286   10.2943   -0.0229 H         1 <0>         0.1405
     29 H8          5.3273    9.7083   -0.0029 H         1 <0>         0.1355
@<TRIPOS>BOND
     1    1    6 ar
     2    1    2 ar
     3    1   22 1
     4    2    3 ar
     5    2   23 1
     6    3    4 ar
     7    3   24 1
     8    4    9 1
     9    4    5 ar
    10    5    6 ar
    11    5    7 1
    12    6   25 1
    13    7    8 2
    14    7   12 1
    15    8    9 1
    16    9   10 2
    17    9   11 2
    18   12   13 1
    19   13   21 1
    20   13   14 2
    21   14   15 1
    22   15   20 ar
    23   15   16 ar
    24   16   17 ar
    25   16   26 1
    26   17   18 ar
    27   17   27 1
    28   18   19 ar
    29   18   28 1
    30   19   20 ar
    31   19   29 1
    32   20   21 1
@<TRIPOS>MOLECULE
ZINC20348034
   48    51     0     0     0
SMALL
USER_CHARGES
(8R)-3-cyclopentyl-6-oxo-8-(p-tolyl)-2,4,7,8-tetrahydropyrido[2,1-b][1,3,5]thiadiazine-9-carbonitrile
@<TRIPOS>ATOM
      1 C1          5.7089    6.6655   -0.0154 C.3       1 <0>        -0.1205
      2 C2          4.5130    5.7734   -0.2271 C.ar      1 <0>        -0.0785
      3 C3          4.2106    5.3122   -1.4947 C.ar      1 <0>        -0.1181
      4 C4          3.1141    4.4931   -1.6888 C.ar      1 <0>        -0.1009
      5 C5          2.3203    4.1348   -0.6153 C.ar      1 <0>        -0.0949
      6 C6          2.6198    4.6002    0.6514 C.ar      1 <0>        -0.1023
      7 C7          3.7187    5.4158    0.8463 C.ar      1 <0>        -0.1168
      8 C8          1.1250    3.2418   -0.8269 C.3       1 <0>         0.0192
      9 H1          1.0490    3.0089   -1.8993 H         1 <0>         0.1095
     10 C9          1.2853    1.9629    0.0003 C.3       1 <0>        -0.1282
     11 C10        -0.0144    1.2084    0.0087 C.2       1 <0>         0.5257
     12 O1          0.0021   -0.0041    0.0020 O.2       1 <0>        -0.4963
     13 N1         -1.2065    1.8578    0.0179 N.am      1 <0>        -0.5391
     14 C11        -2.4031    1.0360    0.0108 C.3       1 <0>         0.2830
     15 N2         -3.6504    1.6428    0.4021 N.3       1 <0>        -0.5610
     16 C12        -3.9006    2.9768   -0.1493 C.3       1 <0>         0.0563
     17 S1         -2.6602    4.1014    0.5559 S.3       1 <0>        -0.0475
     18 C13        -1.2135    3.2366    0.0199 C.2       1 <0>         0.1672
     19 C14        -0.1248    3.9521   -0.3723 C.2       1 <0>        -0.0892
     20 C15        -0.1659    5.3834   -0.3529 C.1       1 <0>         0.2603
     21 N3         -0.1985    6.5188   -0.3374 N.1       1 <0>        -0.3969
     22 C16        -4.7802    0.7426    0.1356 C.3       1 <0>         0.0917
     23 C17        -5.0510    0.6691   -1.3813 C.3       1 <0>        -0.1648
     24 C18        -6.5949    0.5900   -1.4874 C.3       1 <0>        -0.1200
     25 C19        -7.0650    1.5416   -0.3593 C.3       1 <0>        -0.1237
     26 C20        -6.0603    1.2967    0.7854 C.3       1 <0>        -0.1164
     27 H2          6.2127    6.8378   -0.9779 H         1 <0>         0.0665
     28 H3          6.4079    6.1821    0.6830 H         1 <0>         0.0717
     29 H4          5.3790    7.6277    0.4033 H         1 <0>         0.0711
     30 H5          4.8311    5.5916   -2.3333 H         1 <0>         0.1242
     31 H6          2.8778    4.1328   -2.6791 H         1 <0>         0.1251
     32 H7          1.9971    4.3238    1.4895 H         1 <0>         0.1209
     33 H8          3.9552    5.7758    1.8366 H         1 <0>         0.1232
     34 H9          2.0719    1.3352   -0.4438 H         1 <0>         0.1264
     35 H10         1.5644    2.2257    1.0313 H         1 <0>         0.1172
     36 H11        -2.5803    0.6552   -1.0058 H         1 <0>         0.0523
     37 H12        -2.2710    0.1900    0.7014 H         1 <0>         0.1128
     38 H13        -3.8101    2.9435   -1.2451 H         1 <0>         0.0781
     39 H14        -4.9147    3.3027    0.1251 H         1 <0>         0.1372
     40 H15        -4.4839   -0.2288    0.5581 H         1 <0>         0.0973
     41 H16        -4.6490    1.5691   -1.8695 H         1 <0>         0.0695
     42 H17        -4.5620   -0.2237   -1.7982 H         1 <0>         0.0711
     43 H18        -6.9115    0.9261   -2.4858 H         1 <0>         0.0687
     44 H19        -6.9205   -0.4488   -1.3298 H         1 <0>         0.0722
     45 H20        -7.0350    2.5805   -0.7197 H         1 <0>         0.0663
     46 H21        -8.0939    1.2843   -0.0676 H         1 <0>         0.0727
     47 H22        -6.4547    0.5622    1.5030 H         1 <0>         0.0788
     48 H23        -5.8283    2.2347    1.3110 H         1 <0>         0.0792
@<TRIPOS>BOND
     1    1    2 1
     2    1   27 1
     3    1   28 1
     4    1   29 1
     5    2    7 ar
     6    2    3 ar
     7    3    4 ar
     8    3   30 1
     9    4    5 ar
    10    4   31 1
    11    5    6 ar
    12    5    8 1
    13    6    7 ar
    14    6   32 1
    15    7   33 1
    16    8    9 1
    17    8   19 1
    18    8   10 1
    19   10   11 1
    20   10   34 1
    21   10   35 1
    22   11   12 2
    23   11   13 am
    24   13   18 1
    25   13   14 1
    26   14   15 1
    27   14   36 1
    28   14   37 1
    29   15   16 1
    30   15   22 1
    31   16   17 1
    32   16   38 1
    33   16   39 1
    34   17   18 1
    35   18   19 2
    36   19   20 1
    37   20   21 3
    38   22   26 1
    39   22   23 1
    40   22   40 1
    41   23   24 1
    42   23   41 1
    43   23   42 1
    44   24   25 1
    45   24   43 1
    46   24   44 1
    47   25   26 1
    48   25   45 1
    49   25   46 1
    50   26   47 1
    51   26   48 1
@<TRIPOS>MOLECULE
ZINC39277045
   28    30     0     0     0
SMALL
USER_CHARGES

@<TRIPOS>ATOM
      1 C1         -0.0163    1.3513    0.0095 C.2       1 <0>        -0.1600
      2 C2          1.1833    2.0380    0.0017 C.2       1 <0>        -0.1235
      3 C3          2.3426    1.3358   -0.0131 C.2       1 <0>        -0.1332
      4 S1          1.7535   -0.3495   -0.0166 S.3       1 <0>         0.0650
      5 C4          0.0021   -0.0041    0.0020 C.2       1 <0>        -0.1609
      6 C5          3.7608    1.8454   -0.0244 C.3       1 <0>         0.0803
      7 H1          3.8034    2.8715    0.3410 H         1 <0>         0.1733
      8 C6          4.3570    1.7457   -1.4181 C.2       1 <0>         0.0347
      9 C7          5.4062    0.8977   -1.2559 C.2       1 <0>        -0.0216
     10 N1          5.4951    0.5011    0.0206 N.2       1 <0>        -0.1587
     11 N2          4.6354    0.9707    0.7750 N.2       1 <0>        -0.1219
     12 N3          3.9432    2.3530   -2.5466 N.2       1 <0>        -0.1993
     13 N4          4.5734    2.1538   -3.6545 N.2       1 <0>        -0.1779
     14 C8          4.1548    2.7682   -4.7963 C.ar      1 <0>         0.0454
     15 C9          3.0449    3.6208   -4.7701 C.ar      1 <0>        -0.0764
     16 C10         2.6276    4.2385   -5.9291 C.ar      1 <0>        -0.0999
     17 C11         3.3035    4.0176   -7.1182 C.ar      1 <0>        -0.0532
     18 C12         4.4030    3.1751   -7.1522 C.ar      1 <0>        -0.0999
     19 C13         4.8360    2.5546   -6.0004 C.ar      1 <0>        -0.0350
     20 Br1         2.7222    4.8698   -8.7030 Br        1 <0>        -0.0307
     21 H2         -0.9542    1.8866    0.0258 H         1 <0>         0.1403
     22 H3          1.1967    3.1179    0.0070 H         1 <0>         0.1388
     23 H4         -0.8275   -0.6955    0.0065 H         1 <0>         0.1905
     24 H5          6.0747    0.5871   -2.0453 H         1 <0>         0.1923
     25 H6          2.5167    3.7937   -3.8440 H         1 <0>         0.1491
     26 H7          1.7712    4.8963   -5.9106 H         1 <0>         0.1432
     27 H8          4.9248    3.0078   -8.0829 H         1 <0>         0.1487
     28 H9          5.6958    1.9017   -6.0276 H         1 <0>         0.1504
@<TRIPOS>BOND
     1    1    5 2
     2    1    2 1
     3    1   21 1
     4    2    3 2
     5    2   22 1
     6    3    4 1
     7    3    6 1
     8    4    5 1
     9    5   23 1
    10    6    7 1
    11    6   11 1
    12    6    8 1
    13    8    9 2
    14    8   12 1
    15    9   10 1
    16    9   24 1
    17   10   11 2
    18   12   13 2
    19   13   14 1
    20   14   19 ar
    21   14   15 ar
    22   15   16 ar
    23   15   25 1
    24   16   17 ar
    25   16   26 1
    26   17   18 ar
    27   17   20 1
    28   18   19 ar
    29   18   27 1
    30   19   28 1
@<TRIPOS>MOLECULE
ZINC31864715
   50    53     0     0     0
SMALL
USER_CHARGES

@<TRIPOS>ATOM
      1 C1         -0.0184    1.5028    0.0103 C.3       1 <0>        -0.0893
      2 C2          0.0021   -0.0041    0.0020 C.2       1 <0>         0.1603
      3 C3          0.0061   -0.7299   -1.1827 C.2       1 <0>        -0.2841
      4 S1          0.0318   -2.3981   -0.5457 S.3       1 <0>         0.1880
      5 C4          0.0348   -2.0213    1.0945 C.2       1 <0>         0.0922
      6 N1          0.0225   -0.6988    1.1087 N.2       1 <0>        -0.5162
      7 C5          0.0531   -2.9481    2.2457 C.ar      1 <0>        -0.0784
      8 C6          0.0470   -2.4555    3.5564 C.ar      1 <0>        -0.0238
      9 C7          0.0643   -3.3651    4.5987 C.ar      1 <0>        -0.1709
     10 C8          0.0868   -4.7192    4.3157 C.ar      1 <0>         0.1184
     11 N2          0.0920   -5.1546    3.0705 N.ar      1 <0>        -0.4774
     12 C9          0.0708   -4.3289    2.0447 C.ar      1 <0>         0.1310
     13 C10        -0.0076   -0.2575   -2.5703 C.2       1 <0>         0.6278
     14 O1         -0.0254    0.9362   -2.8066 O.2       1 <0>        -0.5182
     15 N3         -0.0005   -1.1455   -3.5848 N.am      1 <0>        -0.6040
     16 C11         0.0335   -2.6096   -3.4469 C.3       1 <0>         0.0967
     17 C12        -0.0220   -3.1841   -4.8815 C.3       1 <0>        -0.0635
     18 C13         0.6287   -2.0481   -5.7153 C.3       1 <0>        -0.1240
     19 C14        -0.0124   -0.8189   -5.0246 C.3       1 <0>         0.1437
     20 H1          0.5507    0.1006   -5.2314 H         1 <0>         0.1011
     21 C15        -1.4574   -0.7300   -5.5075 C.3       1 <0>        -0.1188
     22 C16        -2.2615   -1.9979   -5.2854 C.3       1 <0>        -0.0526
     23 C17        -1.4811   -3.2974   -5.3160 C.3       1 <0>        -0.0981
     24 C18        -3.0443   -1.8883   -3.9678 C.3       1 <0>        -0.1441
     25 C19        -3.3185   -2.0712   -6.4157 C.3       1 <0>        -0.1468
     26 C20         0.7399   -4.5126   -5.0064 C.3       1 <0>        -0.1325
     27 H2          1.0042    1.8801    0.0026 H         1 <0>         0.0831
     28 H3         -0.5455    1.8639   -0.8728 H         1 <0>         0.0966
     29 H4         -0.5286    1.8543    0.9071 H         1 <0>         0.0768
     30 H5          0.0296   -1.3929    3.7487 H         1 <0>         0.1484
     31 H6          0.0606   -3.0217    5.6227 H         1 <0>         0.1465
     32 H7          0.1006   -5.4313    5.1275 H         1 <0>         0.1655
     33 H8          0.0712   -4.7236    1.0395 H         1 <0>         0.1586
     34 H9          0.9709   -2.9082   -2.9691 H         1 <0>         0.0695
     35 H10        -0.8041   -2.9642   -2.8553 H         1 <0>         0.0778
     36 H11         1.7132   -2.0460   -5.6053 H         1 <0>         0.0779
     37 H12         0.3415   -2.1107   -6.7646 H         1 <0>         0.0912
     38 H13        -1.9579    0.1063   -4.9984 H         1 <0>         0.0682
     39 H14        -1.4603   -0.4902   -6.5820 H         1 <0>         0.0740
     40 H15        -1.5161   -3.7098   -6.3376 H         1 <0>         0.0680
     41 H16        -1.9882   -4.0330   -4.6708 H         1 <0>         0.0652
     42 H17        -3.7204   -1.0347   -4.0168 H         1 <0>         0.0540
     43 H18        -3.6208   -2.7999   -3.8107 H         1 <0>         0.0543
     44 H19        -2.3470   -1.7524   -3.1411 H         1 <0>         0.0516
     45 H20        -2.8154   -2.0998   -7.3823 H         1 <0>         0.0553
     46 H21        -3.9202   -2.9717   -6.2926 H         1 <0>         0.0549
     47 H22        -3.9634   -1.1938   -6.3676 H         1 <0>         0.0548
     48 H23         0.2941   -5.2511   -4.3401 H         1 <0>         0.0624
     49 H24         0.6820   -4.8692   -6.0348 H         1 <0>         0.0663
     50 H25         1.7839   -4.3597   -4.7331 H         1 <0>         0.0627
@<TRIPOS>BOND
     1    1    2 1
     2    1   27 1
     3    1   28 1
     4    1   29 1
     5    2    6 1
     6    2    3 2
     7    3    4 1
     8    3   13 1
     9    4    5 1
    10    5    6 2
    11    5    7 1
    12    7   12 ar
    13    7    8 ar
    14    8    9 ar
    15    8   30 1
    16    9   10 ar
    17    9   31 1
    18   10   11 ar
    19   10   32 1
    20   11   12 ar
    21   12   33 1
    22   13   14 2
    23   13   15 am
    24   15   19 1
    25   15   16 1
    26   16   17 1
    27   16   34 1
    28   16   35 1
    29   17   23 1
    30   17   18 1
    31   17   26 1
    32   18   19 1
    33   18   36 1
    34   18   37 1
    35   19   20 1
    36   19   21 1
    37   21   22 1
    38   21   38 1
    39   21   39 1
    40   22   23 1
    41   22   24 1
    42   22   25 1
    43   23   40 1
    44   23   41 1
    45   24   42 1
    46   24   43 1
    47   24   44 1
    48   25   45 1
    49   25   46 1
    50   25   47 1
    51   26   48 1
    52   26   49 1
    53   26   50 1
@<TRIPOS>MOLECULE
ZINC12881744
   68    73     0     0     0
SMALL
USER_CHARGES
N-butyl-2-[dioxo-(p-tolyl)BLAHyl]benzamide
@<TRIPOS>ATOM
      1 C1         -7.1914   -0.5804    2.1601 C.3       1 <0>        -0.1530
      2 C2         -6.0068   -1.4818    1.8068 C.3       1 <0>        -0.1214
      3 C3         -4.7155   -0.6616    1.8351 C.3       1 <0>        -0.1326
      4 C4         -3.5309   -1.5631    1.4818 C.3       1 <0>         0.1201
      5 N1         -2.2945   -0.7778    1.5089 N.am      1 <0>        -0.7243
      6 C5         -1.1154   -1.3672    1.2278 C.2       1 <0>         0.5600
      7 O1         -1.0780   -2.5506    0.9517 O.2       1 <0>        -0.5281
      8 C6          0.1300   -0.5761    1.2552 C.ar      1 <0>        -0.1201
      9 C7          0.0916    0.7837    1.5719 C.ar      1 <0>        -0.0800
     10 C8          1.2583    1.5170    1.5962 C.ar      1 <0>        -0.1096
     11 C9          2.4707    0.9118    1.3078 C.ar      1 <0>        -0.0812
     12 C10         2.5235   -0.4315    0.9932 C.ar      1 <0>        -0.1041
     13 C11         1.3587   -1.1852    0.9639 C.ar      1 <0>         0.1866
     14 N2          1.4103   -2.5441    0.6463 N.am      1 <0>        -0.5236
     15 C12         1.5716   -3.5284    1.5542 C.2       1 <0>         0.5440
     16 O2          1.7099   -3.4025    2.7519 O.2       1 <0>        -0.4576
     17 C13         1.5440   -4.8242    0.7691 C.3       1 <0>         0.0958
     18 H1          0.7069   -5.4567    1.0645 H         1 <0>         0.1383
     19 C14         2.8934   -5.5390    0.9070 C.3       1 <0>        -0.0407
     20 C15         3.1166   -6.4234   -0.2940 C.2       1 <0>        -0.1518
     21 C16         4.0389   -7.5382   -0.4094 C.ar      1 <0>        -0.0993
     22 C17         4.9386   -8.1172    0.4906 C.ar      1 <0>        -0.0650
     23 C18         5.6731   -9.1835    0.0332 C.ar      1 <0>        -0.1474
     24 C19         5.5380   -9.6713   -1.2563 C.ar      1 <0>        -0.0957
     25 C20         4.6547   -9.1177   -2.1669 C.ar      1 <0>        -0.1301
     26 C21         3.8950   -8.0343   -1.7299 C.ar      1 <0>         0.1072
     27 N3          2.9509   -7.2683   -2.3502 N.pl3     1 <0>        -0.5724
     28 H2          2.6516   -7.3834   -3.2657 H         1 <0>         0.4187
     29 C22         2.4901   -6.3128   -1.4844 C.2       1 <0>         0.0661
     30 C23         1.4327   -5.2684   -1.7832 C.3       1 <0>         0.2964
     31 H3          1.6923   -4.7187   -2.6880 H         1 <0>         0.1205
     32 N4          1.4137   -4.3603   -0.6297 N.am      1 <0>        -0.6052
     33 C24         1.2997   -3.0311   -0.5979 C.2       1 <0>         0.7307
     34 O3          1.1206   -2.3418   -1.5827 O.2       1 <0>        -0.5341
     35 C25         0.0868   -5.9264   -1.9462 C.ar      1 <0>        -0.1136
     36 C26        -0.5124   -6.5507   -0.8682 C.ar      1 <0>        -0.0863
     37 C27        -1.7490   -7.1505   -1.0166 C.ar      1 <0>        -0.1182
     38 C28        -2.3822   -7.1338   -2.2453 C.ar      1 <0>        -0.0737
     39 C29        -1.7807   -6.5140   -3.3245 C.ar      1 <0>        -0.1197
     40 C30        -0.5460   -5.9105   -3.1751 C.ar      1 <0>        -0.0953
     41 C31        -3.7286   -7.7909   -2.4080 C.3       1 <0>        -0.1178
     42 H4         -7.0469   -0.1646    3.1573 H         1 <0>         0.0549
     43 H5         -7.2600    0.2305    1.4349 H         1 <0>         0.0548
     44 H6         -8.1114   -1.1647    2.1399 H         1 <0>         0.0570
     45 H7         -6.1513   -1.8975    0.8096 H         1 <0>         0.0653
     46 H8         -5.9382   -2.2926    2.5320 H         1 <0>         0.0655
     47 H9         -4.5710   -0.2459    2.8323 H         1 <0>         0.0702
     48 H10        -4.7841    0.1492    1.1099 H         1 <0>         0.0700
     49 H11        -3.6754   -1.9788    0.4846 H         1 <0>         0.0691
     50 H12        -3.4623   -2.3739    2.2070 H         1 <0>         0.0693
     51 H13        -2.3244    0.1664    1.7292 H         1 <0>         0.4000
     52 H14        -0.8517    1.2609    1.7930 H         1 <0>         0.1346
     53 H15         1.2272    2.5683    1.8412 H         1 <0>         0.1393
     54 H16         3.3799    1.4942    1.3293 H         1 <0>         0.1404
     55 H17         3.4725   -0.8962    0.7699 H         1 <0>         0.1363
     56 H18         3.6920   -4.7996    0.9675 H         1 <0>         0.0844
     57 H19         2.8917   -6.1475    1.8113 H         1 <0>         0.1012
     58 H20         5.0504   -7.7438    1.4978 H         1 <0>         0.1307
     59 H21         6.3788   -9.6567    0.6999 H         1 <0>         0.1197
     60 H22         6.1429  -10.5122   -1.5618 H         1 <0>         0.1222
     61 H23         4.5584   -9.5075   -3.1695 H         1 <0>         0.1289
     62 H24        -0.0159   -6.5670    0.0908 H         1 <0>         0.1205
     63 H25        -2.2191   -7.6344   -0.1733 H         1 <0>         0.1243
     64 H26        -2.2754   -6.5010   -4.2845 H         1 <0>         0.1254
     65 H27        -0.0761   -5.4262   -4.0183 H         1 <0>         0.1249
     66 H28        -3.5918   -8.8329   -2.6974 H         1 <0>         0.0726
     67 H29        -4.2721   -7.7443   -1.4643 H         1 <0>         0.0678
     68 H30        -4.2958   -7.2709   -3.1800 H         1 <0>         0.0678
@<TRIPOS>BOND
     1    1    2 1
     2    1   42 1
     3    1   43 1
     4    1   44 1
     5    2    3 1
     6    2   45 1
     7    2   46 1
     8    3    4 1
     9    3   47 1
    10    3   48 1
    11    4    5 1
    12    4   49 1
    13    4   50 1
    14    5    6 am
    15    5   51 1
    16    6    7 2
    17    6    8 1
    18    8   13 ar
    19    8    9 ar
    20    9   10 ar
    21    9   52 1
    22   10   11 ar
    23   10   53 1
    24   11   12 ar
    25   11   54 1
    26   12   13 ar
    27   12   55 1
    28   13   14 1
    29   14   33 am
    30   14   15 am
    31   15   16 2
    32   15   17 1
    33   17   18 1
    34   17   32 1
    35   17   19 1
    36   19   20 1
    37   19   56 1
    38   19   57 1
    39   20   29 2
    40   20   21 1
    41   21   26 ar
    42   21   22 ar
    43   22   23 ar
    44   22   58 1
    45   23   24 ar
    46   23   59 1
    47   24   25 ar
    48   24   60 1
    49   25   26 ar
    50   25   61 1
    51   26   27 1
    52   27   28 1
    53   27   29 1
    54   29   30 1
    55   30   31 1
    56   30   32 1
    57   30   35 1
    58   32   33 am
    59   33   34 2
    60   35   40 ar
    61   35   36 ar
    62   36   37 ar
    63   36   62 1
    64   37   38 ar
    65   37   63 1
    66   38   39 ar
    67   38   41 1
    68   39   40 ar
    69   39   64 1
    70   40   65 1
    71   41   66 1
    72   41   67 1
    73   41   68 1
@<TRIPOS>MOLECULE
ZINC21258797
   67    72     0     0     0
SMALL
USER_CHARGES
(6S,9S)-6-(1,3-benzodioxol-5-yl)-9-(4-isopropoxy-3-methoxy-phenyl)-5,6,8,9,10,11-hexahydrobenzo[c][1,5]benzodiazepin-7-one
@<TRIPOS>ATOM
      1 C1          7.1943   -8.4025    3.2058 C.3       1 <0>        -0.1817
      2 C2          8.1420   -7.4121    3.8856 C.3       1 <0>         0.0759
      3 C3          9.1585   -8.1791    4.7338 C.3       1 <0>        -0.1501
      4 O1          8.8296   -6.6512    2.8905 O.3       1 <0>        -0.3045
      5 C4          8.1924   -5.5530    2.4034 C.ar      1 <0>         0.1069
      6 C5          6.8892   -5.2793    2.7866 C.ar      1 <0>        -0.1733
      7 C6          6.2450   -4.1592    2.2952 C.ar      1 <0>        -0.1093
      8 C7          6.8941   -3.3162    1.4124 C.ar      1 <0>        -0.0806
      9 C8          8.1943   -3.5835    1.0260 C.ar      1 <0>        -0.1640
     10 C9          8.8477   -4.7014    1.5193 C.ar      1 <0>         0.1003
     11 O2         10.1269   -4.9655    1.1405 O.3       1 <0>        -0.3053
     12 C10        10.7367   -4.0476    0.2307 C.3       1 <0>         0.0225
     13 C11         6.1850   -2.0999    0.8750 C.3       1 <0>        -0.0324
     14 H1          6.8753   -1.5879    0.1884 H         1 <0>         0.0900
     15 C12         4.9101   -2.5233    0.1470 C.3       1 <0>        -0.1014
     16 C13         4.1914   -1.2957   -0.3895 C.2       1 <0>         0.2726
     17 C14         4.2328   -0.1369    0.2878 C.2       1 <0>        -0.3066
     18 C15         3.5384    1.1455   -0.1061 C.3       1 <0>         0.2910
     19 H2          4.2921    1.9466   -0.1201 H         1 <0>         0.0968
     20 N1          2.9995    1.1444   -1.4496 N.pl3     1 <0>        -0.7816
     21 C16         1.9723    0.2767   -1.8117 C.ar      1 <0>         0.1707
     22 C17         0.7102    0.7484   -2.1374 C.ar      1 <0>        -0.1268
     23 C18        -0.3015   -0.1532   -2.4185 C.ar      1 <0>        -0.1083
     24 C19        -0.0569   -1.5140   -2.3830 C.ar      1 <0>        -0.1215
     25 C20         1.2094   -1.9877   -2.0841 C.ar      1 <0>        -0.1163
     26 C21         2.2225   -1.0873   -1.8065 C.ar      1 <0>         0.1131
     27 N2          3.5297   -1.4925   -1.5581 N.pl3     1 <0>        -0.6968
     28 C22         2.4105    1.3955    0.8615 C.ar      1 <0>        -0.0722
     29 C23         2.4493    2.4966    1.6967 C.ar      1 <0>        -0.0789
     30 C24         1.4149    2.7326    2.5828 C.ar      1 <0>        -0.1036
     31 C25         0.3406    1.8597    2.6429 C.ar      1 <0>         0.0279
     32 C26         0.3040    0.7477    1.8053 C.ar      1 <0>         0.0274
     33 C27         1.3419    0.5202    0.9162 C.ar      1 <0>        -0.0858
     34 O3         -0.8436    0.0517    2.0540 O.3       1 <0>        -0.3115
     35 C28        -1.7025    0.9665    2.7603 C.3       1 <0>         0.2093
     36 O4         -0.7841    1.8605    3.4163 O.3       1 <0>        -0.3063
     37 C29         4.9857   -0.0350    1.4814 C.2       1 <0>         0.4009
     38 O5          4.9901    1.0217    2.0819 O.2       1 <0>        -0.4720
     39 C30         5.7778   -1.1818    2.0333 C.3       1 <0>        -0.1599
     40 H3          6.4635   -7.8511    2.5960 H         1 <0>         0.0627
     41 H4          6.6651   -8.9883    3.9718 H         1 <0>         0.0735
     42 H5          7.7731   -9.0801    2.5609 H         1 <0>         0.0699
     43 H6          7.5871   -6.6811    4.4920 H         1 <0>         0.0726
     44 H7          9.8398   -7.4671    5.2225 H         1 <0>         0.0659
     45 H8          9.7372   -8.8567    4.0889 H         1 <0>         0.0691
     46 H9          8.6292   -8.7649    5.4998 H         1 <0>         0.0783
     47 H10         6.3783   -5.9387    3.4726 H         1 <0>         0.1374
     48 H11         5.2309   -3.9445    2.5984 H         1 <0>         0.1257
     49 H12         8.7005   -2.9211    0.3395 H         1 <0>         0.1353
     50 H13        11.7625   -4.3775    0.0095 H         1 <0>         0.1025
     51 H14        10.7635   -3.0456    0.6837 H         1 <0>         0.0561
     52 H15        10.1535   -4.0132   -0.7014 H         1 <0>         0.0553
     53 H16         5.1695   -3.1877   -0.6904 H         1 <0>         0.0876
     54 H17         4.2483   -3.0556    0.8460 H         1 <0>         0.0972
     55 H18         3.4015    1.8367   -2.2040 H         1 <0>         0.4180
     56 H19         0.5180    1.8106   -2.1719 H         1 <0>         0.1236
     57 H20        -1.2872    0.2083   -2.6716 H         1 <0>         0.1221
     58 H21        -0.8566   -2.2098   -2.5895 H         1 <0>         0.1247
     59 H22         1.4044   -3.0499   -2.0681 H         1 <0>         0.1254
     60 H23         4.0290   -2.0057   -2.3932 H         1 <0>         0.4273
     61 H24         3.2880    3.1757    1.6542 H         1 <0>         0.1379
     62 H25         1.4459    3.5958    3.2311 H         1 <0>         0.1339
     63 H26         1.3160   -0.3412    0.2652 H         1 <0>         0.1291
     64 H27        -2.3513    1.4891    2.0420 H         1 <0>         0.0828
     65 H28        -2.3234    0.4080    3.4762 H         1 <0>         0.1313
     66 H29         5.1661   -1.7472    2.7517 H         1 <0>         0.1012
     67 H30         6.6801   -0.8048    2.5370 H         1 <0>         0.0986
@<TRIPOS>BOND
     1    1    2 1
     2    1   40 1
     3    1   41 1
     4    1   42 1
     5    2    3 1
     6    2    4 1
     7    2   43 1
     8    3   44 1
     9    3   45 1
    10    3   46 1
    11    4    5 1
    12    5   10 ar
    13    5    6 ar
    14    6    7 ar
    15    6   47 1
    16    7    8 ar
    17    7   48 1
    18    8    9 ar
    19    8   13 1
    20    9   10 ar
    21    9   49 1
    22   10   11 1
    23   11   12 1
    24   12   50 1
    25   12   51 1
    26   12   52 1
    27   13   14 1
    28   13   39 1
    29   13   15 1
    30   15   16 1
    31   15   53 1
    32   15   54 1
    33   16   27 1
    34   16   17 2
    35   17   18 1
    36   17   37 1
    37   18   19 1
    38   18   20 1
    39   18   28 1
    40   20   21 1
    41   20   55 1
    42   21   26 ar
    43   21   22 ar
    44   22   23 ar
    45   22   56 1
    46   23   24 ar
    47   23   57 1
    48   24   25 ar
    49   24   58 1
    50   25   26 ar
    51   25   59 1
    52   26   27 1
    53   27   60 1
    54   28   33 ar
    55   28   29 ar
    56   29   30 ar
    57   29   61 1
    58   30   31 ar
    59   30   62 1
    60   31   36 1
    61   31   32 ar
    62   32   33 ar
    63   32   34 1
    64   33   63 1
    65   34   35 1
    66   35   36 1
    67   35   64 1
    68   35   65 1
    69   37   38 2
    70   37   39 1
    71   39   66 1
    72   39   67 1
@<TRIPOS>MOLECULE
ZINC35636166
   61    65     0     0     0
SMALL
USER_CHARGES

@<TRIPOS>ATOM
      1 C1          0.4417    0.9713    0.4831 C.3       1 <0>        -0.1166
      2 C2          0.3761   -0.5155    0.2461 C.ar      1 <0>        -0.0800
      3 C3          0.2426   -1.0053   -1.0396 C.ar      1 <0>        -0.1204
      4 C4          0.1824   -2.3691   -1.2570 C.ar      1 <0>        -0.0790
      5 C5          0.2562   -3.2432   -0.1887 C.ar      1 <0>        -0.1117
      6 C6          0.3907   -2.7535    1.0970 C.ar      1 <0>        -0.0954
      7 C7          0.4552   -1.3898    1.3140 C.ar      1 <0>        -0.1246
      8 C8          0.1896   -4.7300   -0.4255 C.3       1 <0>         0.2570
      9 H1          0.4431   -4.9126   -1.4698 H         1 <0>         0.0901
     10 C9         -1.2427   -5.1741   -0.2079 C.2       1 <0>        -0.2827
     11 C10        -1.4713   -6.1170    0.7287 C.2       1 <0>         0.1720
     12 C11        -2.9636   -6.3617    0.7308 C.3       1 <0>         0.1598
     13 N1         -3.4969   -5.4550   -0.2966 N.am      1 <0>        -0.6111
     14 C12        -2.4533   -4.7832   -0.8158 C.2       1 <0>         0.5876
     15 O1         -2.5426   -3.9464   -1.6956 O.2       1 <0>        -0.5132
     16 C13        -4.9026   -5.3101   -0.6829 C.3       1 <0>         0.2085
     17 H2         -5.1962   -4.2637   -0.5998 H         1 <0>         0.1221
     18 C14        -5.0824   -5.7707   -2.1065 C.ar      1 <0>        -0.1119
     19 C15        -4.5178   -6.9614   -2.5242 C.ar      1 <0>        -0.0910
     20 C16        -4.6827   -7.3840   -3.8300 C.ar      1 <0>        -0.1169
     21 C17        -5.4126   -6.6160   -4.7180 C.ar      1 <0>        -0.1054
     22 C18        -5.9779   -5.4258   -4.3001 C.ar      1 <0>        -0.1150
     23 C19        -5.8166   -5.0054   -2.9931 C.ar      1 <0>        -0.0963
     24 C20        -5.7628   -6.1472    0.2283 C.2       1 <0>         0.5243
     25 O2         -5.2519   -6.8005    1.1134 O.2       1 <0>        -0.5101
     26 N2         -7.0998   -6.1698    0.0599 N.am      1 <0>        -0.6594
     27 C21        -7.9084   -6.8630    0.9690 C.ar      1 <0>         0.1329
     28 C22        -9.0692   -7.4869    0.5317 C.ar      1 <0>        -0.1110
     29 C23        -9.8654   -8.1700    1.4300 C.ar      1 <0>        -0.1325
     30 C24        -9.5069   -8.2326    2.7661 C.ar      1 <0>         0.0881
     31 C25        -8.3496   -7.6110    3.2042 C.ar      1 <0>        -0.1329
     32 C26        -7.5475   -6.9322    2.3080 C.ar      1 <0>        -0.0903
     33 F1        -10.2875   -8.9005    3.6434 F         1 <0>        -0.1374
     34 N3         -0.4482   -6.6543    1.4566 N.am      1 <0>        -0.5267
     35 C27         0.8346   -6.3000    1.3053 C.2       1 <0>         0.7102
     36 O3          1.6781   -6.8343    1.9986 O.2       1 <0>        -0.5576
     37 N4          1.2196   -5.3696    0.4104 N.am      1 <0>        -0.7103
     38 C28        -0.7715   -7.6744    2.4571 C.3       1 <0>         0.0717
     39 H3          1.4799    1.3005    0.4406 H         1 <0>         0.0710
     40 H4         -0.1348    1.4873   -0.2846 H         1 <0>         0.0669
     41 H5          0.0275    1.2014    1.4647 H         1 <0>         0.0656
     42 H6          0.1849   -0.3224   -1.8743 H         1 <0>         0.1226
     43 H7          0.0774   -2.7517   -2.2615 H         1 <0>         0.1251
     44 H8          0.4480   -3.4364    1.9318 H         1 <0>         0.1119
     45 H9          0.5639   -1.0073    2.3181 H         1 <0>         0.1200
     46 H10        -3.1781   -7.3981    0.4701 H         1 <0>         0.1127
     47 H11        -3.3861   -6.1200    1.7061 H         1 <0>         0.1228
     48 H12        -3.9476   -7.5614   -1.8304 H         1 <0>         0.1176
     49 H13        -4.2411   -8.3139   -4.1565 H         1 <0>         0.1249
     50 H14        -5.5408   -6.9458   -5.7384 H         1 <0>         0.1256
     51 H15        -6.5478   -4.8257   -4.9939 H         1 <0>         0.1281
     52 H16        -6.2614   -4.0773   -2.6656 H         1 <0>         0.1272
     53 H17        -7.5019   -5.7060   -0.6912 H         1 <0>         0.4168
     54 H18        -9.3495   -7.4377   -0.5101 H         1 <0>         0.1379
     55 H19       -10.7683   -8.6554    1.0902 H         1 <0>         0.1418
     56 H20        -8.0720   -7.6607    4.2467 H         1 <0>         0.1409
     57 H21        -6.6427   -6.4513    2.6493 H         1 <0>         0.1448
     58 H22         2.1544   -5.1277    0.3180 H         1 <0>         0.4349
     59 H23        -0.7323   -8.6612    1.9957 H         1 <0>         0.0739
     60 H24        -0.0494   -7.6255    3.2722 H         1 <0>         0.0965
     61 H25        -1.7732   -7.4956    2.8478 H         1 <0>         0.0855
@<TRIPOS>BOND
     1    1    2 1
     2    1   39 1
     3    1   40 1
     4    1   41 1
     5    2    7 ar
     6    2    3 ar
     7    3    4 ar
     8    3   42 1
     9    4    5 ar
    10    4   43 1
    11    5    6 ar
    12    5    8 1
    13    6    7 ar
    14    6   44 1
    15    7   45 1
    16    8    9 1
    17    8   37 1
    18    8   10 1
    19   10   14 1
    20   10   11 2
    21   11   12 1
    22   11   34 1
    23   12   13 1
    24   12   46 1
    25   12   47 1
    26   13   14 am
    27   13   16 1
    28   14   15 2
    29   16   17 1
    30   16   18 1
    31   16   24 1
    32   18   23 ar
    33   18   19 ar
    34   19   20 ar
    35   19   48 1
    36   20   21 ar
    37   20   49 1
    38   21   22 ar
    39   21   50 1
    40   22   23 ar
    41   22   51 1
    42   23   52 1
    43   24   25 2
    44   24   26 am
    45   26   27 1
    46   26   53 1
    47   27   32 ar
    48   27   28 ar
    49   28   29 ar
    50   28   54 1
    51   29   30 ar
    52   29   55 1
    53   30   31 ar
    54   30   33 1
    55   31   32 ar
    56   31   56 1
    57   32   57 1
    58   34   35 am
    59   34   38 1
    60   35   36 2
    61   35   37 am
    62   37   58 1
    63   38   59 1
    64   38   60 1
    65   38   61 1
@<TRIPOS>MOLECULE
ZINC40826614
   68    72     0     0     0
SMALL
USER_CHARGES

@<TRIPOS>ATOM
      1 C1          0.0241    1.5032    0.0058 C.3       1 <0>        -0.1144
      2 C2          0.0332   -0.0037   -0.0012 C.ar      1 <0>        -0.0933
      3 C3          0.6314   -0.6853   -1.0456 C.ar      1 <0>        -0.1077
      4 C4          0.6415   -2.0660   -1.0551 C.ar      1 <0>        -0.1109
      5 C5          0.0500   -2.7706   -0.0142 C.ar      1 <0>         0.1338
      6 C6         -0.5497   -2.0832    1.0330 C.ar      1 <0>        -0.1037
      7 C7         -0.5514   -0.7019    1.0392 C.ar      1 <0>        -0.1044
      8 C8         -1.1925   -2.8434    2.1643 C.3       1 <0>        -0.1167
      9 N1          0.0581   -4.1689   -0.0209 N.am      1 <0>        -0.6626
     10 C9         -0.0405   -4.8377   -1.1869 C.2       1 <0>         0.6089
     11 O1         -0.0539   -4.2270   -2.2394 O.2       1 <0>        -0.4932
     12 C10        -0.1316   -6.3018   -1.1871 C.2       1 <0>        -0.1066
     13 C11        -0.2297   -7.0955   -2.2960 C.2       1 <0>        -0.0223
     14 C12        -0.2908   -8.4142   -1.8292 C.2       1 <0>        -0.1547
     15 C13        -0.2293   -8.3694   -0.4563 C.2       1 <0>         0.0658
     16 O2         -0.1268   -7.0937   -0.0907 O.3       1 <0>        -0.1470
     17 C14        -0.2737   -9.6041    0.4076 C.3       1 <0>        -0.0443
     18 C15        -0.8939  -10.7576   -0.3855 C.3       1 <0>        -0.1096
     19 C16        -0.1721  -10.9425   -1.7244 C.3       1 <0>        -0.1179
     20 C17        -0.3991   -9.6940   -2.5643 C.2       1 <0>         0.1626
     21 N2         -0.6680   -9.7476   -3.8324 N.2       1 <0>        -0.2170
     22 N3         -0.7586  -10.9880   -4.4774 N.am      1 <0>        -0.5868
     23 C18        -1.0380  -11.0438   -5.7947 C.2       1 <0>         0.5263
     24 O3         -1.2110  -10.0198   -6.4220 O.2       1 <0>        -0.4853
     25 C19        -1.1354  -12.3780   -6.4885 C.3       1 <0>        -0.0586
     26 C20        -1.4549  -12.1644   -7.9457 C.2       1 <0>        -0.1689
     27 C21        -2.6685  -12.1766   -8.5135 C.2       1 <0>         0.0287
     28 O4         -2.5644  -11.9479   -9.8343 O.3       1 <0>        -0.1883
     29 C22        -1.2760  -11.7752  -10.1924 C.ar      1 <0>         0.0573
     30 C23        -0.4998  -11.8947   -9.0272 C.ar      1 <0>        -0.1133
     31 C24         0.8856  -11.7556   -9.0914 C.ar      1 <0>        -0.0733
     32 C25         1.4881  -11.4973  -10.3030 C.ar      1 <0>        -0.1279
     33 C26         0.7222  -11.3756  -11.4531 C.ar      1 <0>        -0.0642
     34 C27        -0.6482  -11.5186  -11.4044 C.ar      1 <0>        -0.0731
     35 C28        -1.4658  -11.3813  -12.6628 C.3       1 <0>        -0.1150
     36 C29         1.3959  -11.0924  -12.7711 C.3       1 <0>        -0.1151
     37 C30        -0.2653   -6.6419   -3.7327 C.3       1 <0>        -0.1017
     38 H1          0.9169    1.8696    0.5125 H         1 <0>         0.0705
     39 H2          0.0117    1.8713   -1.0201 H         1 <0>         0.0669
     40 H3         -0.8629    1.8587    0.5301 H         1 <0>         0.0660
     41 H4          1.0907   -0.1369   -1.8547 H         1 <0>         0.1262
     42 H5          1.1084   -2.5976   -1.8711 H         1 <0>         0.1406
     43 H6         -1.0137   -0.1668    1.8554 H         1 <0>         0.1263
     44 H7         -0.4549   -3.0237    2.9463 H         1 <0>         0.0722
     45 H8         -2.0182   -2.2598    2.5713 H         1 <0>         0.0727
     46 H9         -1.5693   -3.7967    1.7936 H         1 <0>         0.0634
     47 H10         0.1347   -4.6575    0.8135 H         1 <0>         0.4140
     48 H11         0.7385   -9.8733    0.7094 H         1 <0>         0.1032
     49 H12        -0.8770   -9.4064    1.2936 H         1 <0>         0.1000
     50 H13        -0.8143  -11.6765    0.1954 H         1 <0>         0.0937
     51 H14        -1.9459  -10.5409   -0.5714 H         1 <0>         0.0764
     52 H15         0.8952  -11.0796   -1.5508 H         1 <0>         0.0983
     53 H16        -0.5756  -11.8124   -2.2425 H         1 <0>         0.0801
     54 H17        -0.6203  -11.8067   -3.9759 H         1 <0>         0.3850
     55 H18        -0.1854  -12.9047   -6.3983 H         1 <0>         0.1089
     56 H19        -1.9248  -12.9710   -6.0266 H         1 <0>         0.1100
     57 H20        -3.5959  -12.3462   -7.9867 H         1 <0>         0.2067
     58 H21         1.4830  -11.8495   -8.1966 H         1 <0>         0.1226
     59 H22         2.5613  -11.3888  -10.3576 H         1 <0>         0.1294
     60 H23        -1.7516  -10.3382  -12.7983 H         1 <0>         0.0729
     61 H24        -0.8749  -11.7101  -13.5177 H         1 <0>         0.0734
     62 H25        -2.3622  -11.9962  -12.5826 H         1 <0>         0.0676
     63 H26         1.6517  -12.0335  -13.2579 H         1 <0>         0.0743
     64 H27         0.7196  -10.5248  -13.4103 H         1 <0>         0.0716
     65 H28         2.3035  -10.5141  -12.5983 H         1 <0>         0.0705
     66 H29         0.7507   -6.5962   -4.1246 H         1 <0>         0.0769
     67 H30        -0.8507   -7.3477   -4.3221 H         1 <0>         0.0871
     68 H31        -0.7219   -5.6539   -3.7905 H         1 <0>         0.0867
@<TRIPOS>BOND
     1    1    2 1
     2    1   38 1
     3    1   39 1
     4    1   40 1
     5    2    7 ar
     6    2    3 ar
     7    3    4 ar
     8    3   41 1
     9    4    5 ar
    10    4   42 1
    11    5    6 ar
    12    5    9 1
    13    6    7 ar
    14    6    8 1
    15    7   43 1
    16    8   44 1
    17    8   45 1
    18    8   46 1
    19    9   10 am
    20    9   47 1
    21   10   11 2
    22   10   12 1
    23   12   16 1
    24   12   13 2
    25   13   14 1
    26   13   37 1
    27   14   20 1
    28   14   15 2
    29   15   16 1
    30   15   17 1
    31   17   18 1
    32   17   48 1
    33   17   49 1
    34   18   19 1
    35   18   50 1
    36   18   51 1
    37   19   20 1
    38   19   52 1
    39   19   53 1
    40   20   21 2
    41   21   22 1
    42   22   23 am
    43   22   54 1
    44   23   24 2
    45   23   25 1
    46   25   26 1
    47   25   55 1
    48   25   56 1
    49   26   30 1
    50   26   27 2
    51   27   28 1
    52   27   57 1
    53   28   29 1
    54   29   34 ar
    55   29   30 ar
    56   30   31 ar
    57   31   32 ar
    58   31   58 1
    59   32   33 ar
    60   32   59 1
    61   33   34 ar
    62   33   36 1
    63   34   35 1
    64   35   60 1
    65   35   61 1
    66   35   62 1
    67   36   63 1
    68   36   64 1
    69   36   65 1
    70   37   66 1
    71   37   67 1
    72   37   68 1
@<TRIPOS>MOLECULE
ZINC59462510
   51    54     0     0     0
SMALL
USER_CHARGES

@<TRIPOS>ATOM
      1 C1         -0.0187    1.3796    0.1384 C.ar      1 <0>        -0.1357
      2 C2          1.0286    1.8880   -0.6080 C.ar      1 <0>        -0.1016
      3 C3          2.2358    1.2188   -0.6521 C.ar      1 <0>        -0.1468
      4 C4          2.3974    0.0338    0.0542 C.ar      1 <0>         0.1593
      5 C5          1.3435   -0.4742    0.8028 C.ar      1 <0>        -0.1013
      6 C6          0.1388    0.2000    0.8427 C.ar      1 <0>        -0.1005
      7 N1          3.6183   -0.6466    0.0113 N.pl3     1 <0>        -0.6265
      8 C7          3.6433   -2.0260    0.0841 C.ar      1 <0>         0.6471
      9 N2          2.5048   -2.7124    0.0842 N.ar      1 <0>        -0.6294
     10 C8          2.5289   -4.0398    0.1538 C.ar      1 <0>         0.6732
     11 N3          3.6920   -4.6809    0.2232 N.ar      1 <0>        -0.6701
     12 C9          4.8301   -3.9945    0.2230 C.ar      1 <0>         0.6596
     13 N4          4.8060   -2.6672    0.1484 N.ar      1 <0>        -0.6671
     14 N5          6.0372   -4.6598    0.2956 N.pl3     1 <0>        -0.5685
     15 C10         7.3035   -3.9145    0.3025 C.3       1 <0>         0.1241
     16 C11         8.1247   -4.3491    1.5204 C.3       1 <0>        -0.1358
     17 C12         8.2908   -5.8704    1.5023 C.3       1 <0>        -0.1224
     18 C13         6.9154   -6.5364    1.5845 C.3       1 <0>        -0.1360
     19 C14         6.0802   -6.1263    0.3734 C.3       1 <0>         0.1243
     20 N6          1.3461   -4.7530    0.1544 N.pl3     1 <0>        -0.5355
     21 N7          0.1280   -4.0894   -0.0423 N.2       1 <0>        -0.1950
     22 C15        -0.9734   -4.7692   -0.1359 C.2       1 <0>         0.0952
     23 C16        -2.2388   -4.0826   -0.4558 C.ar      1 <0>        -0.0310
     24 C17        -2.2390   -2.7206   -0.7660 C.ar      1 <0>        -0.0740
     25 C18        -3.4259   -2.0848   -1.0647 C.ar      1 <0>        -0.0880
     26 C19        -4.6152   -2.7933   -1.0575 C.ar      1 <0>        -0.0873
     27 C20        -4.6222   -4.1431   -0.7505 C.ar      1 <0>        -0.0895
     28 C21        -3.4419   -4.7926   -0.4556 C.ar      1 <0>        -0.0872
     29 I1         -6.4126   -1.8180   -1.5126 I         1 <0>        -0.0398
     30 H1         -0.9603    1.9073    0.1748 H         1 <0>         0.1210
     31 H2          0.9022    2.8093   -1.1572 H         1 <0>         0.1243
     32 H3          3.0533    1.6162   -1.2354 H         1 <0>         0.1228
     33 H4          1.4659   -1.3953    1.3531 H         1 <0>         0.1355
     34 H5         -0.6811   -0.1944    1.4245 H         1 <0>         0.1219
     35 H6          4.4477   -0.1501   -0.0695 H         1 <0>         0.4248
     36 H7          7.8598   -4.1310   -0.6095 H         1 <0>         0.0685
     37 H8          7.0981   -2.8458    0.3627 H         1 <0>         0.1006
     38 H9          9.1059   -3.8756    1.4854 H         1 <0>         0.0783
     39 H10         7.6084   -4.0504    2.4327 H         1 <0>         0.0660
     40 H11         8.7850   -6.1707    0.5784 H         1 <0>         0.0657
     41 H12         8.8957   -6.1798    2.3546 H         1 <0>         0.0666
     42 H13         7.0358   -7.6197    1.5951 H         1 <0>         0.0783
     43 H14         6.4105   -6.2171    2.4962 H         1 <0>         0.0657
     44 H15         5.0680   -6.5164    0.4804 H         1 <0>         0.0994
     45 H16         6.5346   -6.5272   -0.5326 H         1 <0>         0.0679
     46 H17         1.3588   -5.7132    0.2910 H         1 <0>         0.4051
     47 H18        -0.9634   -5.8378    0.0204 H         1 <0>         0.1244
     48 H19        -1.3119   -2.1666   -0.7717 H         1 <0>         0.1451
     49 H20        -3.4275   -1.0317   -1.3044 H         1 <0>         0.1334
     50 H21        -5.5536   -4.6898   -0.7463 H         1 <0>         0.1340
     51 H22        -3.4481   -5.8468   -0.2209 H         1 <0>         0.1371
@<TRIPOS>BOND
     1    1    6 ar
     2    1    2 ar
     3    1   30 1
     4    2    3 ar
     5    2   31 1
     6    3    4 ar
     7    3   32 1
     8    4    5 ar
     9    4    7 1
    10    5    6 ar
    11    5   33 1
    12    6   34 1
    13    7    8 1
    14    7   35 1
    15    8   13 ar
    16    8    9 ar
    17    9   10 ar
    18   10   11 ar
    19   10   20 1
    20   11   12 ar
    21   12   13 ar
    22   12   14 1
    23   14   19 1
    24   14   15 1
    25   15   16 1
    26   15   36 1
    27   15   37 1
    28   16   17 1
    29   16   38 1
    30   16   39 1
    31   17   18 1
    32   17   40 1
    33   17   41 1
    34   18   19 1
    35   18   42 1
    36   18   43 1
    37   19   44 1
    38   19   45 1
    39   20   21 1
    40   20   46 1
    41   21   22 2
    42   22   23 1
    43   22   47 1
    44   23   28 ar
    45   23   24 ar
    46   24   25 ar
    47   24   48 1
    48   25   26 ar
    49   25   49 1
    50   26   27 ar
    51   26   29 1
    52   27   28 ar
    53   27   50 1
    54   28   51 1
@<TRIPOS>MOLECULE
ZINC16904453
   34    36     0     0     0
SMALL
USER_CHARGES
4-[[(5Z)-5-benzylidene-4-oxo-thiazolidin-2-ylidene]amino]benzoic acid
@<TRIPOS>ATOM
      1 C1         -5.7938    4.2278    0.3725 C.ar      1 <0>        -0.0975
      2 C2         -5.9890    3.0014   -0.2388 C.ar      1 <0>        -0.1253
      3 C3         -4.9427    2.1115   -0.3570 C.ar      1 <0>        -0.0860
      4 C4         -3.6806    2.4511    0.1432 C.ar      1 <0>        -0.0893
      5 C5         -3.4931    3.6908    0.7645 C.ar      1 <0>        -0.0885
      6 C6         -4.5486    4.5714    0.8699 C.ar      1 <0>        -0.1134
      7 C7         -2.5595    1.5081    0.0219 C.2       1 <0>         0.0516
      8 C8         -1.3033    1.9027    0.3473 C.2       1 <0>        -0.2168
      9 C9         -0.0666    1.1017    0.4520 C.2       1 <0>         0.5641
     10 O1         -0.0634   -0.0958    0.2356 O.2       1 <0>        -0.4966
     11 N1          1.0379    1.7473    0.7864 N.am      1 <0>        -0.6457
     12 C10         1.0146    3.1021    1.0269 C.2       1 <0>         0.3506
     13 N2          2.0133    3.8905    1.3653 N.2       1 <0>        -0.4415
     14 C11         1.7944    5.2205    1.5630 C.ar      1 <0>         0.0707
     15 C12         1.0183    5.9459    0.6502 C.ar      1 <0>        -0.1546
     16 C13         0.7957    7.2765    0.8508 C.ar      1 <0>        -0.0621
     17 C14         1.3511    7.9195    1.9637 C.ar      1 <0>        -0.1015
     18 C15         2.1315    7.1957    2.8735 C.ar      1 <0>        -0.0773
     19 C16         2.3503    5.8640    2.6760 C.ar      1 <0>        -0.1035
     20 C17         1.1150    9.3568    2.1771 C.2       1 <0>         0.4867
     21 O2          1.5975    9.9151    3.1430 O.co2     1 <0>        -0.6284
     22 S1         -0.6990    3.5311    0.7677 S.3       1 <0>        -0.0015
     23 H1         -6.6175    4.9206    0.4616 H         1 <0>         0.1281
     24 H2         -6.9636    2.7410   -0.6246 H         1 <0>         0.1281
     25 H3         -5.0965    1.1551   -0.8345 H         1 <0>         0.1308
     26 H4         -2.5232    3.9585    1.1571 H         1 <0>         0.1353
     27 H5         -4.4044    5.5304    1.3452 H         1 <0>         0.1338
     28 H6         -2.7361    0.5012   -0.3263 H         1 <0>         0.1575
     29 H7          1.8736    1.2608    0.8627 H         1 <0>         0.4203
     30 H8          0.5930    5.4509   -0.2102 H         1 <0>         0.1242
     31 H9          0.1941    7.8351    0.1490 H         1 <0>         0.1373
     32 H10         2.5598    7.6918    3.7319 H         1 <0>         0.1359
     33 H11         2.9525    5.3058    3.3775 H         1 <0>         0.1256
     34 O3          0.3638   10.0537    1.3013 O.co2     1 <0>        -0.7508
@<TRIPOS>BOND
     1    1    6 ar
     2    1    2 ar
     3    1   23 1
     4    2    3 ar
     5    2   24 1
     6    3    4 ar
     7    3   25 1
     8    4    5 ar
     9    4    7 1
    10    5    6 ar
    11    5   26 1
    12    6   27 1
    13    7    8 2
    14    7   28 1
    15    8   22 1
    16    8    9 1
    17    9   10 2
    18    9   11 am
    19   11   12 1
    20   11   29 1
    21   12   13 2
    22   12   22 1
    23   13   14 1
    24   14   19 ar
    25   14   15 ar
    26   15   16 ar
    27   15   30 1
    28   16   17 ar
    29   16   31 1
    30   17   18 ar
    31   17   20 1
    32   18   19 ar
    33   18   32 1
    34   19   33 1
    35   20   21 2
    36   20   34 1
@<TRIPOS>MOLECULE
ZINC02594810
   33    36     0     0     0
SMALL
USER_CHARGES

@<TRIPOS>ATOM
      1 C1         -0.1097    1.1884    1.7381 C.ar      1 <0>        -0.1451
      2 C2          1.0689    1.8818    1.9589 C.ar      1 <0>        -0.0842
      3 C3          2.2895    1.2427    1.8677 C.ar      1 <0>        -0.1454
      4 C4          2.3476   -0.1097    1.5518 C.ar      1 <0>         0.1545
      5 C5          1.1523   -0.8090    1.3294 C.ar      1 <0>        -0.1021
      6 C6         -0.0736   -0.1549    1.4239 C.ar      1 <0>        -0.0548
      7 C7          1.5339   -2.2024    1.0195 C.2       1 <0>        -0.0929
      8 C8          0.6958   -3.2573    0.7298 C.2       1 <0>        -0.0698
      9 C9          1.0218   -4.6800    0.4165 C.2       1 <0>         0.5146
     10 O1          2.1699   -5.0868    0.3835 O.2       1 <0>        -0.4817
     11 N1         -0.0025   -5.4676    0.1790 N.2       1 <0>        -0.7069
     12 C10        -1.2546   -5.0376    0.2123 C.2       1 <0>         0.4367
     13 S1         -1.0892   -3.3094    0.6308 S.3       1 <0>        -0.0821
     14 N2         -2.3993   -5.7475   -0.0140 N.2       1 <0>        -0.5584
     15 C11        -2.3479   -7.1407   -0.1233 C.ar      1 <0>         0.1489
     16 C12        -3.3377   -7.8206   -0.8216 C.ar      1 <0>        -0.1122
     17 C13        -3.2847   -9.1964   -0.9286 C.ar      1 <0>        -0.1406
     18 C14        -2.2460   -9.8982   -0.3401 C.ar      1 <0>         0.0422
     19 C15        -1.2583   -9.2225    0.3569 C.ar      1 <0>        -0.1362
     20 C16        -1.3039   -7.8463    0.4613 C.ar      1 <0>        -0.1261
     21 F1         -2.1964  -11.2442   -0.4458 F         1 <0>        -0.1555
     22 C17         3.0127   -2.2182    1.0872 C.2       1 <0>         0.5595
     23 O2          3.7283   -3.1823    0.8942 O.2       1 <0>        -0.4537
     24 N3          3.4237   -0.9772    1.3994 N.am      1 <0>        -0.6606
     25 H1         -1.0583    1.6986    1.8165 H         1 <0>         0.1288
     26 H2          1.0328    2.9329    2.2044 H         1 <0>         0.1283
     27 H3          3.2012    1.7949    2.0418 H         1 <0>         0.1255
     28 H4         -0.9920   -0.6965    1.2519 H         1 <0>         0.1310
     29 H5         -4.1483   -7.2737   -1.2801 H         1 <0>         0.1269
     30 H6         -4.0541   -9.7254   -1.4714 H         1 <0>         0.1254
     31 H7         -0.4494   -9.7720    0.8154 H         1 <0>         0.1225
     32 H8         -0.5309   -7.3193    1.0009 H         1 <0>         0.1477
     33 H9          4.3529   -0.7194    1.5045 H         1 <0>         0.4156
@<TRIPOS>BOND
     1    1    6 ar
     2    1    2 ar
     3    1   25 1
     4    2    3 ar
     5    2   26 1
     6    3    4 ar
     7    3   27 1
     8    4   24 1
     9    4    5 ar
    10    5    6 ar
    11    5    7 1
    12    6   28 1
    13    7    8 2
    14    7   22 1
    15    8   13 1
    16    8    9 1
    17    9   10 2
    18    9   11 1
    19   11   12 2
    20   12   13 1
    21   12   14 1
    22   14   15 1
    23   15   20 ar
    24   15   16 ar
    25   16   17 ar
    26   16   29 1
    27   17   18 ar
    28   17   30 1
    29   18   19 ar
    30   18   21 1
    31   19   20 ar
    32   19   31 1
    33   20   32 1
    34   22   23 2
    35   22   24 am
    36   24   33 1
@<TRIPOS>MOLECULE
ZINC39306244
   38    41     0     0     0
SMALL
USER_CHARGES

@<TRIPOS>ATOM
      1 C1         -0.0178    1.4608    0.0101 C.3       1 <0>         0.1269
      2 N1          0.0021   -0.0041    0.0020 N.pl3     1 <0>        -0.6379
      3 C2          0.0087   -0.8284   -1.1317 C.ar      1 <0>         0.1340
      4 C3         -0.0016   -0.5044   -2.4832 C.ar      1 <0>        -0.1390
      5 C4          0.0072   -1.5044   -3.4365 C.ar      1 <0>        -0.1278
      6 C5          0.0263   -2.8316   -3.0501 C.ar      1 <0>        -0.1285
      7 C6          0.0367   -3.1634   -1.7090 C.ar      1 <0>        -0.1392
      8 C7          0.0284   -2.1645   -0.7427 C.ar      1 <0>         0.1336
      9 N2          0.0352   -2.2514    0.6564 N.pl3     1 <0>        -0.7464
     10 C8          0.0252   -0.8800    1.1795 C.3       1 <0>         0.4121
     11 H1          0.9224   -0.6935    1.7696 H         1 <0>         0.0837
     12 C9         -1.2251   -0.6524    2.0316 C.3       1 <0>        -0.1381
     13 S1         -2.7033   -1.0202    1.0467 S.3       1 <0>        -0.0093
     14 C10        -4.0399   -0.7143    2.1533 C.ar      1 <0>         0.3514
     15 N3         -3.7638   -0.3035    3.3893 N.ar      1 <0>        -0.6475
     16 C11        -4.7231   -0.0570    4.2651 C.ar      1 <0>         0.4770
     17 O1         -4.4278    0.3603    5.5175 O.3       1 <0>        -0.6705
     18 C12        -6.0671   -0.2403    3.8596 C.ar      1 <0>        -0.2361
     19 C13        -7.1417   -0.0016    4.7233 C.ar      1 <0>        -0.0263
     20 C14        -8.4170   -0.1944    4.2789 C.ar      1 <0>        -0.1924
     21 C15        -8.6635   -0.6254    2.9788 C.ar      1 <0>        -0.0817
     22 C16        -7.6386   -0.8672    2.1126 C.ar      1 <0>        -0.1425
     23 C17        -6.3159   -0.6786    2.5355 C.ar      1 <0>         0.1987
     24 N4         -5.2734   -0.8967    1.7211 N.ar      1 <0>        -0.5934
     25 H2          1.0048    1.8381    0.0023 H         1 <0>         0.0462
     26 H3         -0.5450    1.8219   -0.8730 H         1 <0>         0.0694
     27 H4         -0.5280    1.8123    0.9069 H         1 <0>         0.0703
     28 H5         -0.0169    0.5313   -2.7889 H         1 <0>         0.1141
     29 H6         -0.0012   -1.2487   -4.4858 H         1 <0>         0.1169
     30 H7          0.0328   -3.6106   -3.7981 H         1 <0>         0.1171
     31 H8          0.0513   -4.2014   -1.4108 H         1 <0>         0.1154
     32 H9          0.0480   -3.0668    1.1815 H         1 <0>         0.4248
     33 H10        -1.1959   -1.3080    2.9019 H         1 <0>         0.0980
     34 H11        -1.2566    0.3864    2.3602 H         1 <0>         0.0974
     35 H12        -6.9628    0.3324    5.7347 H         1 <0>         0.1220
     36 H13        -9.2467   -0.0103    4.9453 H         1 <0>         0.1117
     37 H14        -9.6822   -0.7709    2.6511 H         1 <0>         0.1145
     38 H15        -7.8450   -1.2013    1.1065 H         1 <0>         0.1216
@<TRIPOS>BOND
     1    1    2 1
     2    1   25 1
     3    1   26 1
     4    1   27 1
     5    2   10 1
     6    2    3 1
     7    3    8 ar
     8    3    4 ar
     9    4    5 ar
    10    4   28 1
    11    5    6 ar
    12    5   29 1
    13    6    7 ar
    14    6   30 1
    15    7    8 ar
    16    7   31 1
    17    8    9 1
    18    9   10 1
    19    9   32 1
    20   10   11 1
    21   10   12 1
    22   12   13 1
    23   12   33 1
    24   12   34 1
    25   13   14 1
    26   14   24 ar
    27   14   15 ar
    28   15   16 ar
    29   16   17 1
    30   16   18 ar
    31   18   19 ar
    32   18   23 ar
    33   19   35 1
    34   19   20 ar
    35   20   36 1
    36   20   21 ar
    37   21   37 1
    38   21   22 ar
    39   22   38 1
    40   22   23 ar
    41   23   24 ar
@<TRIPOS>MOLECULE
ZINC18029741
   49    53     0     0     0
SMALL
USER_CHARGES

@<TRIPOS>ATOM
      1 C1          0.2540    1.4825    0.1358 C.3       1 <0>        -0.1526
      2 C2          0.0261   -0.0243   -0.0003 C.3       1 <0>         0.0334
      3 C3         -1.4788   -0.3142   -0.0078 C.3       1 <0>        -0.1067
      4 C4         -2.1520    0.0792    1.3130 C.3       1 <0>         0.1831
      5 N1         -1.4576   -0.6094    2.4117 N.pl3     1 <0>        -0.5023
      6 C5         -0.1301   -0.9654    2.2695 C.ar      1 <0>         0.0729
      7 C6          0.6694   -0.7333    1.1549 C.ar      1 <0>        -0.0766
      8 C7          1.9664   -1.1774    1.2297 C.ar      1 <0>        -0.1312
      9 C8          2.4340   -1.8212    2.3710 C.ar      1 <0>        -0.1327
     10 C9          1.6424   -2.0546    3.4884 C.ar      1 <0>        -0.1250
     11 C10         0.3229   -1.6095    3.4275 C.ar      1 <0>         0.0191
     12 C11        -0.8315   -1.6302    4.3230 C.2       1 <0>        -0.4369
     13 C12        -0.8821   -2.1753    5.6246 C.2       1 <0>         0.4347
     14 C13        -1.2404   -3.5730    6.0009 C.2       1 <0>         0.4729
     15 O1         -1.5497   -4.4803    5.2555 O.2       1 <0>        -0.4032
     16 N2         -1.1474   -3.6145    7.3485 N.am      1 <0>        -0.6750
     17 C14        -0.7765   -2.3980    7.7826 C.2       1 <0>         0.4705
     18 S1         -0.5358   -1.9900    9.4278 S.2       1 <0>        -0.4368
     19 N3         -0.6150   -1.5508    6.7644 N.2       1 <0>        -0.4767
     20 C15        -1.8862   -0.9978    3.6299 C.2       1 <0>         0.5149
     21 O2         -3.1321   -0.8101    4.1127 O.3       1 <0>        -0.6769
     22 C16        -3.6222   -0.3434    1.2878 C.3       1 <0>        -0.1523
     23 C17        -2.0538    1.5933    1.5103 C.3       1 <0>        -0.1648
     24 C18         0.6365   -0.5097   -1.2898 C.ar      1 <0>        -0.0568
     25 C19         0.6610   -1.8617   -1.5771 C.ar      1 <0>        -0.1021
     26 C20         1.2209   -2.3069   -2.7599 C.ar      1 <0>        -0.1204
     27 C21         1.7559   -1.4002   -3.6557 C.ar      1 <0>        -0.1288
     28 C22         1.7306   -0.0482   -3.3689 C.ar      1 <0>        -0.1234
     29 C23         1.1668    0.3974   -2.1880 C.ar      1 <0>        -0.1211
     30 H1          1.2483    1.7343   -0.2330 H         1 <0>         0.0594
     31 H2         -0.4959    2.0175   -0.4469 H         1 <0>         0.0606
     32 H3          0.1720    1.7691    1.1842 H         1 <0>         0.0745
     33 H4         -1.9425    0.2442   -0.8210 H         1 <0>         0.0786
     34 H5         -1.6329   -1.3795   -0.1796 H         1 <0>         0.0699
     35 H6          2.6316   -1.0255    0.3925 H         1 <0>         0.1075
     36 H7          3.4607   -2.1556    2.3889 H         1 <0>         0.1035
     37 H8          2.0306   -2.5567    4.3622 H         1 <0>         0.1115
     38 H9         -3.6876   -1.4235    1.1564 H         1 <0>         0.0552
     39 H10        -4.0973   -0.0623    2.2277 H         1 <0>         0.0888
     40 H11        -4.1292    0.1545    0.4613 H         1 <0>         0.0583
     41 H12        -2.1250    2.0910    0.5432 H         1 <0>         0.0659
     42 H13        -2.8676    1.9295    2.1528 H         1 <0>         0.0594
     43 H14        -1.0988    1.8379    1.9754 H         1 <0>         0.0729
     44 H15         0.2430   -2.5701   -0.8772 H         1 <0>         0.1217
     45 H16         1.2406   -3.3633   -2.9840 H         1 <0>         0.1180
     46 H17         2.1939   -1.7481   -4.5796 H         1 <0>         0.1157
     47 H18         2.1489    0.6602   -4.0687 H         1 <0>         0.1171
     48 H19         1.1437    1.4540   -1.9656 H         1 <0>         0.1267
     49 H20        -1.3189   -4.3892    7.9065 H         1 <0>         0.4355
@<TRIPOS>BOND
     1    1    2 1
     2    1   30 1
     3    1   31 1
     4    1   32 1
     5    2    7 1
     6    2    3 1
     7    2   24 1
     8    3    4 1
     9    3   33 1
    10    3   34 1
    11    4    5 1
    12    4   22 1
    13    4   23 1
    14    5   20 1
    15    5    6 1
    16    6   11 ar
    17    6    7 ar
    18    7    8 ar
    19    8    9 ar
    20    8   35 1
    21    9   10 ar
    22    9   36 1
    23   10   11 ar
    24   10   37 1
    25   11   12 1
    26   12   13 1
    27   12   20 2
    28   13   19 2
    29   13   14 1
    30   14   15 2
    31   14   16 am
    32   16   17 1
    33   16   49 1
    34   17   18 2
    35   17   19 1
    36   20   21 1
    37   22   38 1
    38   22   39 1
    39   22   40 1
    40   23   41 1
    41   23   42 1
    42   23   43 1
    43   24   29 ar
    44   24   25 ar
    45   25   26 ar
    46   25   44 1
    47   26   27 ar
    48   26   45 1
    49   27   28 ar
    50   27   46 1
    51   28   29 ar
    52   28   47 1
    53   29   48 1
@<TRIPOS>MOLECULE
ZINC62824629
   39    40     0     0     0
SMALL
USER_CHARGES

@<TRIPOS>ATOM
      1 C1         -0.1766    1.3004    0.2501 C.3       1 <0>        -0.1436
      2 C2          0.0023   -0.2125    0.1088 C.3       1 <0>        -0.1070
      3 H1         -0.9731   -0.6983    0.1357 H         1 <0>         0.0794
      4 C3          0.6913   -0.5234   -1.2219 C.3       1 <0>        -0.1075
      5 C4          2.0465    0.1856   -1.2744 C.3       1 <0>        -0.1092
      6 H2          1.8999    1.2597   -1.1608 H         1 <0>         0.0772
      7 C5          2.9337   -0.3324   -0.1381 C.3       1 <0>         0.1146
      8 N1          2.2163   -0.1694    1.1338 N.am      1 <0>        -0.6221
      9 C6          0.8656   -0.7351    1.2613 C.3       1 <0>         0.1330
     10 C7          2.7861    0.4861    2.1644 C.2       1 <0>         0.7076
     11 O1          2.1461    0.7031    3.1751 O.2       1 <0>        -0.5885
     12 N2          4.0652    0.9012    2.0746 N.am      1 <0>        -0.6562
     13 C8          4.6851    1.4880    3.1737 C.ar      1 <0>         0.2150
     14 C9          3.9477    2.2621    4.0600 C.ar      1 <0>        -0.1417
     15 C10         4.5641    2.8431    5.1492 C.ar      1 <0>        -0.0724
     16 C11         5.9211    2.6601    5.3690 C.ar      1 <0>        -0.1326
     17 C12         6.6697    1.8957    4.5013 C.ar      1 <0>        -0.0299
     18 C13         6.0584    1.2957    3.3954 C.ar      1 <0>        -0.1670
     19 C14         6.8501    0.4729    2.4676 C.2       1 <0>         0.5289
     20 O2          8.0645    0.4009    2.5976 O.co2     1 <0>        -0.6760
     21 O3          6.2941   -0.1394    1.5660 O.co2     1 <0>        -0.6862
     22 I1          6.8373    3.5512    7.0290 I         1 <0>        -0.0713
     23 C15         2.7197   -0.0984   -2.6187 C.3       1 <0>        -0.1460
     24 H3          0.7991    1.7857    0.2232 H         1 <0>         0.0582
     25 H4         -0.7899    1.6720   -0.5708 H         1 <0>         0.0502
     26 H5         -0.6663    1.5214    1.1985 H         1 <0>         0.0541
     27 H6          0.8407   -1.5994   -1.3108 H         1 <0>         0.0640
     28 H7          0.0668   -0.1745   -2.0443 H         1 <0>         0.0630
     29 H8          3.1558   -1.3872   -0.2997 H         1 <0>         0.0713
     30 H9          3.8618    0.2385   -0.1098 H         1 <0>         0.0862
     31 H10         0.4291   -0.4300    2.2124 H         1 <0>         0.0936
     32 H11         0.9191   -1.8228    1.2137 H         1 <0>         0.0629
     33 H12         4.5537    0.7908    1.2439 H         1 <0>         0.4225
     34 H13         2.8905    2.4098    3.8963 H         1 <0>         0.1455
     35 H14         3.9860    3.4447    5.8350 H         1 <0>         0.1221
     36 H15         7.7263    1.7569    4.6766 H         1 <0>         0.1353
     37 H16         2.0865    0.2681   -3.4267 H         1 <0>         0.0557
     38 H17         3.6848    0.4067   -2.6557 H         1 <0>         0.0599
     39 H18         2.8672   -1.1725   -2.7315 H         1 <0>         0.0571
@<TRIPOS>BOND
     1    1    2 1
     2    1   24 1
     3    1   25 1
     4    1   26 1
     5    2    3 1
     6    2    9 1
     7    2    4 1
     8    4    5 1
     9    4   27 1
    10    4   28 1
    11    5    6 1
    12    5    7 1
    13    5   23 1
    14    7    8 1
    15    7   29 1
    16    7   30 1
    17    8    9 1
    18    8   10 am
    19    9   31 1
    20    9   32 1
    21   10   11 2
    22   10   12 am
    23   12   13 1
    24   12   33 1
    25   13   18 ar
    26   13   14 ar
    27   14   15 ar
    28   14   34 1
    29   15   16 ar
    30   15   35 1
    31   16   17 ar
    32   16   22 1
    33   17   18 ar
    34   17   36 1
    35   18   19 1
    36   19   20 2
    37   19   21 1
    38   23   37 1
    39   23   38 1
    40   23   39 1
@<TRIPOS>MOLECULE
ZINC09331790
   47    51     0     0     0
SMALL
USER_CHARGES
(5R)-5-(3-bromophenyl)-3-hydroxy-4-[(2R)-2-methyl2,3-dihydrobenzofuran-5-carbonyl]-1-thiazol-2-yl-5H-pyrrol-2-one
@<TRIPOS>ATOM
      1 C1         -2.2226    9.2903   -3.7419 C.3       1 <0>        -0.1563
      2 C2         -2.0025    7.7884   -3.5498 C.3       1 <0>         0.0705
      3 H1         -2.6444    7.2710   -4.2780 H         1 <0>         0.0875
      4 C3         -2.2228    7.3870   -2.0722 C.3       1 <0>        -0.0973
      5 C4         -1.1687    6.3136   -1.8793 C.ar      1 <0>        -0.1884
      6 C5         -0.9980    5.3555   -0.9112 C.ar      1 <0>        -0.0198
      7 C6          0.0819    4.4696   -0.9909 C.ar      1 <0>        -0.1660
      8 C7          0.9798    4.5740   -2.0578 C.ar      1 <0>        -0.0309
      9 C8          0.7969    5.5344   -3.0237 C.ar      1 <0>        -0.1528
     10 C9         -0.2776    6.4226   -2.9436 C.ar      1 <0>         0.1228
     11 O1         -0.6250    7.4432   -3.7723 O.3       1 <0>        -0.3039
     12 C10         0.2753    3.4371    0.0462 C.2       1 <0>         0.5103
     13 O2         -0.5436    3.3087    0.9373 O.2       1 <0>        -0.4674
     14 C11         1.4536    2.5663    0.0026 C.2       1 <0>        -0.4923
     15 C12         1.4607    1.2255   -0.1860 C.2       1 <0>         0.2766
     16 C13         2.8544    0.7383   -0.1550 C.2       1 <0>         0.5103
     17 O3          3.1907   -0.4217   -0.2897 O.2       1 <0>        -0.4666
     18 N1          3.6973    1.7685    0.0411 N.am      1 <0>        -0.5125
     19 C14         2.8950    2.9917    0.1596 C.3       1 <0>         0.2665
     20 H2          3.2008    3.7176   -0.6082 H         1 <0>         0.0870
     21 C15         3.1050    3.6217    1.5124 C.ar      1 <0>        -0.0833
     22 C16         3.2502    4.9923    1.6215 C.ar      1 <0>        -0.0903
     23 C17         3.4429    5.5707    2.8620 C.ar      1 <0>        -0.1134
     24 C18         3.4899    4.7789    3.9943 C.ar      1 <0>        -0.0931
     25 C19         3.3447    3.4079    3.8856 C.ar      1 <0>        -0.0858
     26 C20         3.1467    2.8299    2.6443 C.ar      1 <0>        -0.0586
     27 Br1         3.4095    2.3242    5.4340 Br        1 <0>        -0.0590
     28 C21         5.0802    1.6878    0.1235 C.2       1 <0>         0.3541
     29 N2          5.8558    0.6250    0.0258 N.2       1 <0>        -0.5424
     30 C22         7.1662    0.7240    0.1287 C.2       1 <0>         0.0695
     31 C23         7.7072    1.9496    0.3387 C.2       1 <0>        -0.2603
     32 S1          6.2344    2.9608    0.3740 S.3       1 <0>         0.0442
     33 O4          0.3643    0.4537   -0.3683 O.3       1 <0>        -0.6314
     34 H3         -3.2816    9.5310   -3.5670 H         1 <0>         0.0781
     35 H4         -1.9471    9.5729   -4.7687 H         1 <0>         0.0676
     36 H5         -1.5973    9.8467   -3.0282 H         1 <0>         0.0654
     37 H6         -2.0687    8.2645   -1.4270 H         1 <0>         0.0907
     38 H7         -3.2490    7.0126   -1.9430 H         1 <0>         0.0900
     39 H8         -1.6960    5.2855   -0.0901 H         1 <0>         0.1325
     40 H9          1.8170    3.8951   -2.1253 H         1 <0>         0.1415
     41 H10         1.4913    5.6053   -3.8479 H         1 <0>         0.1296
     42 H11         3.2135    5.6112    0.7372 H         1 <0>         0.1300
     43 H12         3.5563    6.6414    2.9468 H         1 <0>         0.1308
     44 H13         3.6398    5.2310    4.9636 H         1 <0>         0.1291
     45 H14         3.0288    1.7597    2.5594 H         1 <0>         0.1252
     46 H15         7.7944   -0.1507    0.0472 H         1 <0>         0.1678
     47 H16         8.7426    2.2361    0.4495 H         1 <0>         0.1936
@<TRIPOS>BOND
     1    1    2 1
     2    1   34 1
     3    1   35 1
     4    1   36 1
     5    2    3 1
     6    2   11 1
     7    2    4 1
     8    4    5 1
     9    4   37 1
    10    4   38 1
    11    5   10 ar
    12    5    6 ar
    13    6    7 ar
    14    6   39 1
    15    7    8 ar
    16    7   12 1
    17    8    9 ar
    18    8   40 1
    19    9   10 ar
    20    9   41 1
    21   10   11 1
    22   12   13 2
    23   12   14 1
    24   14   19 1
    25   14   15 2
    26   15   16 1
    27   15   33 1
    28   16   17 2
    29   16   18 am
    30   18   19 1
    31   18   28 1
    32   19   20 1
    33   19   21 1
    34   21   26 ar
    35   21   22 ar
    36   22   23 ar
    37   22   42 1
    38   23   24 ar
    39   23   43 1
    40   24   25 ar
    41   24   44 1
    42   25   26 ar
    43   25   27 1
    44   26   45 1
    45   28   32 1
    46   28   29 2
    47   29   30 1
    48   30   31 2
    49   30   46 1
    50   31   32 1
    51   31   47 1
@<TRIPOS>MOLECULE
ZINC33723391
   51    56     0     0     0
SMALL
USER_CHARGES
(4Z,5S)-4-[2,3-dihydro-1,4-benzodioxin-6-yl(hydroxy)methylene]-1-(6-fluoro-1,3-benzothiazol-2-yl)-5-(4-fluorophenyl)pyrrolidine-2,3-dione
@<TRIPOS>ATOM
      1 C1         -3.6429    7.6172   -3.2269 C.ar      1 <0>        -0.0641
      2 C2         -3.4074    8.1177   -4.4933 C.ar      1 <0>        -0.1516
      3 C3         -2.5626    9.2015   -4.6626 C.ar      1 <0>         0.0960
      4 C4         -1.9587    9.7858   -3.5621 C.ar      1 <0>        -0.1496
      5 C5         -2.2000    9.2869   -2.2961 C.ar      1 <0>        -0.0713
      6 C6         -3.0437    8.2046   -2.1283 C.ar      1 <0>        -0.0995
      7 C7         -3.3056    7.6612   -0.7473 C.3       1 <0>         0.2584
      8 H1         -2.5523    8.0758   -0.0613 H         1 <0>         0.0886
      9 C8         -4.7128    8.0016   -0.3142 C.2       1 <0>        -0.4934
     10 C9         -5.2519    9.2645   -0.1627 C.2       1 <0>         0.3985
     11 C10        -4.3925   10.4513   -0.2908 C.ar      1 <0>        -0.0672
     12 C11        -3.1702   10.5104    0.3893 C.ar      1 <0>        -0.0985
     13 C12        -2.3668   11.6206    0.2630 C.ar      1 <0>        -0.1203
     14 C13        -2.7687   12.6911   -0.5290 C.ar      1 <0>         0.0477
     15 C14        -3.9856   12.6409   -1.2066 C.ar      1 <0>         0.0469
     16 C15        -4.7962   11.5279   -1.0886 C.ar      1 <0>        -0.0745
     17 O1         -4.3881   13.6772   -1.9923 O.3       1 <0>        -0.3072
     18 C16        -3.7255   14.9306   -1.7934 C.3       1 <0>         0.0178
     19 C17        -2.2148   14.6699   -1.7233 C.3       1 <0>         0.0200
     20 O2         -1.9634   13.7819   -0.6289 O.3       1 <0>        -0.3073
     21 O3         -6.5679    9.4093    0.1031 O.2       1 <0>        -0.5936
     22 C18        -5.3614    6.7766   -0.0970 C.2       1 <0>         0.3880
     23 O4         -6.5147    6.6337    0.2676 O.3       1 <0>        -0.4593
     24 C19        -4.3973    5.6829   -0.3889 C.2       1 <0>         0.4770
     25 O5         -4.6437    4.4971   -0.3033 O.2       1 <0>        -0.4584
     26 N1         -3.2125    6.1983   -0.7575 N.am      1 <0>        -0.5012
     27 C20        -2.0881    5.4665   -1.0981 C.2       1 <0>         0.4194
     28 N2         -1.9325    4.1635   -1.1299 N.2       1 <0>        -0.5353
     29 C21        -0.7670    3.5800   -1.4852 C.ar      1 <0>         0.1137
     30 C22        -0.4713    2.1993   -1.5655 C.ar      1 <0>        -0.0460
     31 C23         0.7744    1.7703   -1.9419 C.ar      1 <0>        -0.1351
     32 C24         1.7834    2.6684   -2.2674 C.ar      1 <0>         0.0980
     33 C25         1.5265    4.0274   -2.2048 C.ar      1 <0>        -0.0876
     34 C26         0.2824    4.4646   -1.8232 C.ar      1 <0>        -0.1466
     35 S1         -0.4791    6.0552   -1.6065 S.3       1 <0>         0.0265
     36 F1          3.0018    2.2204   -2.6414 F         1 <0>        -0.1332
     37 F2         -2.3278    9.6887   -5.9006 F         1 <0>        -0.1449
     38 H2         -4.2987    6.7692   -3.0950 H         1 <0>         0.1244
     39 H3         -3.8789    7.6611   -5.3510 H         1 <0>         0.1320
     40 H4         -1.2994   10.6310   -3.6930 H         1 <0>         0.1305
     41 H5         -1.7295    9.7428   -1.4375 H         1 <0>         0.1345
     42 H6         -2.8559    9.6835    1.0089 H         1 <0>         0.1372
     43 H7         -1.4222   11.6628    0.7849 H         1 <0>         0.1347
     44 H8         -5.7402   11.4889   -1.6117 H         1 <0>         0.1364
     45 H9         -3.9540   15.6034   -2.6331 H         1 <0>         0.1189
     46 H10        -4.0743   15.3848   -0.8542 H         1 <0>         0.0754
     47 H11        -1.8775   14.2131   -2.6654 H         1 <0>         0.0765
     48 H12        -1.6854   15.6213   -1.5669 H         1 <0>         0.1192
     49 H13        -1.2347    1.4748   -1.3235 H         1 <0>         0.1431
     50 H14         0.9751    0.7102   -1.9908 H         1 <0>         0.1436
     51 H15         2.2998    4.7388   -2.4543 H         1 <0>         0.1429
@<TRIPOS>BOND
     1    1    6 ar
     2    1    2 ar
     3    1   38 1
     4    2    3 ar
     5    2   39 1
     6    3    4 ar
     7    3   37 1
     8    4    5 ar
     9    4   40 1
    10    5    6 ar
    11    5   41 1
    12    6    7 1
    13    7    9 1
    14    7   26 1
    15    7    8 1
    16    9   22 2
    17    9   10 1
    18   10   21 2
    19   10   11 1
    20   11   16 ar
    21   11   12 ar
    22   12   13 ar
    23   12   42 1
    24   13   14 ar
    25   13   43 1
    26   14   20 1
    27   14   15 ar
    28   15   16 ar
    29   15   17 1
    30   16   44 1
    31   17   18 1
    32   18   19 1
    33   18   45 1
    34   18   46 1
    35   19   20 1
    36   19   47 1
    37   19   48 1
    38   22   24 1
    39   22   23 1
    40   24   26 am
    41   24   25 2
    42   26   27 1
    43   27   35 1
    44   27   28 2
    45   28   29 1
    46   29   34 ar
    47   29   30 ar
    48   30   31 ar
    49   30   49 1
    50   31   32 ar
    51   31   50 1
    52   32   33 ar
    53   32   36 1
    54   33   34 ar
    55   33   51 1
    56   34   35 1
@<TRIPOS>MOLECULE
ZINC35566372
   47    51     0     0     0
SMALL
USER_CHARGES

@<TRIPOS>ATOM
      1 C1         -0.7491    1.5727   -0.0093 C.3       1 <0>        -0.0831
      2 C2         -1.7020    0.5392   -0.5524 C.2       1 <0>         0.1186
      3 C3         -1.3672   -0.2748   -1.6284 C.2       1 <0>        -0.2550
      4 S1         -2.8595   -1.2442   -1.7792 S.3       1 <0>         0.1696
      5 C4         -3.7198   -0.5452   -0.5128 C.2       1 <0>         0.0327
      6 N1         -2.8898    0.3535   -0.0339 N.2       1 <0>        -0.5241
      7 C5         -5.1112   -0.8756   -0.0375 C.3       1 <0>        -0.0620
      8 C6         -0.1331   -0.3235   -2.4192 C.2       1 <0>         0.5549
      9 O1          0.7832    0.4384   -2.1660 O.2       1 <0>        -0.4498
     10 C7         -0.0020   -1.2900   -3.5158 C.2       1 <0>        -0.4870
     11 C8          0.0913   -1.0058   -4.8354 C.2       1 <0>         0.2763
     12 C9          0.2085   -2.2649   -5.5965 C.2       1 <0>         0.5160
     13 O2          0.3090   -2.3421   -6.8050 O.2       1 <0>        -0.4784
     14 N2          0.1877   -3.3146   -4.7551 N.am      1 <0>        -0.5052
     15 C10         0.0614   -2.7943   -3.3885 C.3       1 <0>         0.2718
     16 H1         -0.8528   -3.1706   -2.9296 H         1 <0>         0.0920
     17 C11         1.2585   -3.1948   -2.5653 C.ar      1 <0>        -0.0970
     18 C12         2.4575   -3.4897   -3.1865 C.ar      1 <0>        -0.0731
     19 C13         3.5556   -3.8570   -2.4317 C.ar      1 <0>        -0.1254
     20 C14         3.4561   -3.9300   -1.0546 C.ar      1 <0>        -0.0974
     21 C15         2.2586   -3.6353   -0.4313 C.ar      1 <0>        -0.1518
     22 C16         1.1592   -3.2620   -1.1861 C.ar      1 <0>         0.1108
     23 F1         -0.0108   -2.9691   -0.5774 F         1 <0>        -0.1354
     24 C17         0.2759   -4.6481   -5.1141 C.2       1 <0>         0.4156
     25 N3          0.2552   -5.7112   -4.3441 N.2       1 <0>        -0.5482
     26 C18         0.3515   -6.9655   -4.8356 C.ar      1 <0>         0.1284
     27 C19         0.3427   -8.1861   -4.1213 C.ar      1 <0>        -0.0639
     28 C20         0.4513   -9.3832   -4.7788 C.ar      1 <0>        -0.0951
     29 C21         0.5731   -9.4434   -6.1608 C.ar      1 <0>        -0.0379
     30 C22         0.5851   -8.2683   -6.8913 C.ar      1 <0>        -0.0404
     31 C23         0.4769   -7.0648   -6.2402 C.ar      1 <0>        -0.1752
     32 S2          0.4392   -5.3616   -6.7446 S.3       1 <0>         0.0693
     33 Cl1         0.7093  -10.9766   -6.9634 Cl        1 <0>        -0.0627
     34 O3          0.0787    0.2368   -5.3725 O.3       1 <0>        -0.6277
     35 H2         -0.1291    1.1233    0.7664 H         1 <0>         0.0747
     36 H3         -0.1135    1.9399   -0.8151 H         1 <0>         0.0927
     37 H4         -1.3154    2.4025    0.4135 H         1 <0>         0.0695
     38 H5         -5.0597   -1.6528    0.7249 H         1 <0>         0.0869
     39 H6         -5.5726    0.0173    0.3844 H         1 <0>         0.0888
     40 H7         -5.7077   -1.2301   -0.8781 H         1 <0>         0.0840
     41 H8          2.5362   -3.4333   -4.2622 H         1 <0>         0.1172
     42 H9          4.4919   -4.0876   -2.9180 H         1 <0>         0.1249
     43 H10         4.3145   -4.2179   -0.4658 H         1 <0>         0.1284
     44 H11         2.1810   -3.6927    0.6444 H         1 <0>         0.1322
     45 H12         0.2498   -8.1744   -3.0453 H         1 <0>         0.1402
     46 H13         0.4423  -10.3008   -4.2094 H         1 <0>         0.1401
     47 H14         0.6795   -8.2979   -7.9667 H         1 <0>         0.1400
@<TRIPOS>BOND
     1    1    2 1
     2    1   35 1
     3    1   36 1
     4    1   37 1
     5    2    6 1
     6    2    3 2
     7    3    4 1
     8    3    8 1
     9    4    5 1
    10    5    6 2
    11    5    7 1
    12    7   38 1
    13    7   39 1
    14    7   40 1
    15    8    9 2
    16    8   10 1
    17   10   15 1
    18   10   11 2
    19   11   12 1
    20   11   34 1
    21   12   13 2
    22   12   14 am
    23   14   15 1
    24   14   24 1
    25   15   16 1
    26   15   17 1
    27   17   22 ar
    28   17   18 ar
    29   18   19 ar
    30   18   41 1
    31   19   20 ar
    32   19   42 1
    33   20   21 ar
    34   20   43 1
    35   21   22 ar
    36   21   44 1
    37   22   23 1
    38   24   32 1
    39   24   25 2
    40   25   26 1
    41   26   31 ar
    42   26   27 ar
    43   27   28 ar
    44   27   45 1
    45   28   29 ar
    46   28   46 1
    47   29   30 ar
    48   29   33 1
    49   30   31 ar
    50   30   47 1
    51   31   32 1
@<TRIPOS>MOLECULE
ZINC39848882
   59    63     0     0     0
SMALL
USER_CHARGES

@<TRIPOS>ATOM
      1 C1         -1.9173    2.1393    1.4861 C.3       1 <0>        -0.0738
      2 C2         -1.4152    0.7695    1.1084 C.2       1 <0>         0.0916
      3 C3         -1.2115    0.4219   -0.1867 C.2       1 <0>        -0.2608
      4 S1         -0.6368   -1.2575    0.0059 S.3       1 <0>         0.1504
      5 C4         -0.7149   -1.3389    1.6852 C.2       1 <0>         0.3048
      6 N1         -1.1487   -0.1434    2.0233 N.2       1 <0>        -0.5490
      7 N2         -0.3951   -2.4061    2.5126 N.am      1 <0>        -0.5053
      8 C5         -0.4887   -2.4217    3.9771 C.3       1 <0>         0.2677
      9 H1          0.1637   -1.6591    4.4026 H         1 <0>         0.0866
     10 C6         -0.0355   -3.7955    4.4132 C.2       1 <0>        -0.4853
     11 C7          0.2806   -4.4780    3.2869 C.2       1 <0>         0.2717
     12 C8          0.0501   -3.6114    2.1136 C.2       1 <0>         0.5116
     13 O1          0.2370   -3.9381    0.9581 O.2       1 <0>        -0.4920
     14 O2          0.7323   -5.7526    3.2434 O.3       1 <0>        -0.6357
     15 C9          0.0467   -4.2931    5.7891 C.2       1 <0>         0.5056
     16 O3         -0.6609   -5.2170    6.1454 O.2       1 <0>        -0.4668
     17 C10         0.9882   -3.6736    6.7434 C.ar      1 <0>        -0.1429
     18 C11         1.8833   -2.6829    6.2981 C.ar      1 <0>        -0.0512
     19 C12         2.7571   -2.0995    7.1559 C.ar      1 <0>        -0.1355
     20 C13         2.7773   -2.4830    8.5108 C.ar      1 <0>         0.0034
     21 C14         3.6730   -1.8922    9.4145 C.ar      1 <0>        -0.1563
     22 C15         3.6686   -2.2881   10.7336 C.ar      1 <0>         0.1269
     23 C16         2.7814   -3.2728   11.1814 C.ar      1 <0>        -0.2017
     24 C17         1.9032   -3.8615   10.3273 C.ar      1 <0>        -0.0526
     25 C18         1.8802   -3.4806    8.9725 C.ar      1 <0>        -0.0936
     26 C19         0.9799   -4.0682    8.0729 C.ar      1 <0>        -0.0422
     27 O4          4.5353   -1.7167   11.6092 O.3       1 <0>        -0.3185
     28 C20         4.4823   -2.1697   12.9634 C.3       1 <0>         0.0274
     29 C21        -1.9131   -2.1835    4.4079 C.ar      1 <0>        -0.0233
     30 C22        -2.9506   -2.8065    3.7387 C.ar      1 <0>        -0.1262
     31 C23        -4.2583   -2.5900    4.1314 C.ar      1 <0>        -0.0820
     32 C24        -4.5318   -1.7499    5.1936 C.ar      1 <0>        -0.2124
     33 C25        -3.4929   -1.1238    5.8665 C.ar      1 <0>         0.1230
     34 C26        -2.1809   -1.3475    5.4743 C.ar      1 <0>        -0.1304
     35 O5         -3.7593   -0.2971    6.9117 O.3       1 <0>        -0.3188
     36 C27        -5.1327   -0.1182    7.2637 C.3       1 <0>         0.0302
     37 C28        -1.4149    1.2302   -1.4422 C.3       1 <0>        -0.0486
     38 H2         -1.0700    2.8088    1.6342 H         1 <0>         0.0709
     39 H3         -2.5513    2.5265    0.6885 H         1 <0>         0.0702
     40 H4         -2.4938    2.0732    2.4088 H         1 <0>         0.0714
     41 H5          1.8745   -2.3838    5.2604 H         1 <0>         0.1343
     42 H6          3.4380   -1.3407    6.7996 H         1 <0>         0.1290
     43 H7          4.3621   -1.1317    9.0779 H         1 <0>         0.1334
     44 H8          2.7947   -3.5694   12.2198 H         1 <0>         0.1278
     45 H9          1.2245   -4.6205   10.6874 H         1 <0>         0.1316
     46 H10         0.2882   -4.8253    8.4116 H         1 <0>         0.1361
     47 H11         5.2243   -1.6336   13.5552 H         1 <0>         0.0977
     48 H12         3.4887   -1.9825   13.3706 H         1 <0>         0.0546
     49 H13         4.6935   -3.2385   12.9976 H         1 <0>         0.0547
     50 H14        -2.7389   -3.4630    2.9076 H         1 <0>         0.1123
     51 H15        -5.0668   -3.0778    3.6071 H         1 <0>         0.1192
     52 H16        -5.5536   -1.5806    5.4996 H         1 <0>         0.1213
     53 H17        -1.3700   -0.8649    5.9996 H         1 <0>         0.1272
     54 H18        -5.5669   -1.0809    7.5336 H         1 <0>         0.0523
     55 H19        -5.2047    0.5634    8.1112 H         1 <0>         0.0950
     56 H20        -5.6740    0.2993    6.4147 H         1 <0>         0.0515
     57 H21        -0.4956    1.7639   -1.6836 H         1 <0>         0.0701
     58 H22        -1.6751    0.5643   -2.2649 H         1 <0>         0.0674
     59 H23        -2.2209    1.9472   -1.2862 H         1 <0>         0.0759
@<TRIPOS>BOND
     1    1    2 1
     2    1   38 1
     3    1   39 1
     4    1   40 1
     5    2    6 1
     6    2    3 2
     7    3    4 1
     8    3   37 1
     9    4    5 1
    10    5    6 2
    11    5    7 1
    12    7   12 am
    13    7    8 1
    14    8    9 1
    15    8   10 1
    16    8   29 1
    17   10   11 2
    18   10   15 1
    19   11   12 1
    20   11   14 1
    21   12   13 2
    22   15   16 2
    23   15   17 1
    24   17   26 ar
    25   17   18 ar
    26   18   19 ar
    27   18   41 1
    28   19   20 ar
    29   19   42 1
    30   20   25 ar
    31   20   21 ar
    32   21   22 ar
    33   21   43 1
    34   22   23 ar
    35   22   27 1
    36   23   24 ar
    37   23   44 1
    38   24   25 ar
    39   24   45 1
    40   25   26 ar
    41   26   46 1
    42   27   28 1
    43   28   47 1
    44   28   48 1
    45   28   49 1
    46   29   34 ar
    47   29   30 ar
    48   30   31 ar
    49   30   50 1
    50   31   32 ar
    51   31   51 1
    52   32   33 ar
    53   32   52 1
    54   33   34 ar
    55   33   35 1
    56   34   53 1
    57   35   36 1
    58   36   54 1
    59   36   55 1
    60   36   56 1
    61   37   57 1
    62   37   58 1
    63   37   59 1
@<TRIPOS>MOLECULE
ZINC59198467
   53    55     0     0     0
SMALL
USER_CHARGES

@<TRIPOS>ATOM
      1 C1         -0.0569    0.4950   -2.1869 C.3       1 <0>        -0.1494
      2 C2         -0.0017   -0.9000   -1.5608 C.3       1 <0>         0.0518
      3 O1         -1.2756   -1.2202   -0.9981 O.3       1 <0>        -0.3094
      4 C3         -1.3978   -2.4344   -0.3978 C.ar      1 <0>         0.0904
      5 C4         -0.3182   -3.2912   -0.3472 C.ar      1 <0>        -0.1692
      6 C5         -0.4527   -4.5430    0.2750 C.ar      1 <0>        -0.0409
      7 C6         -1.6841   -4.9112    0.8398 C.ar      1 <0>        -0.0062
      8 C7         -2.7460   -4.0547    0.7837 C.ar      1 <0>        -0.0746
      9 C8         -2.6147   -2.8126    0.1731 C.ar      1 <0>         0.0821
     10 O2         -3.6747   -1.9666    0.1272 O.3       1 <0>        -0.3108
     11 C9         -3.7571   -0.9736    1.1516 C.3       1 <0>         0.1730
     12 C10        -4.8945   -0.0801    0.8785 C.1       1 <0>        -0.1821
     13 C11        -5.8018    0.6325    0.6607 C.1       1 <0>        -0.1813
     14 C12        -4.0654   -4.4555    1.3918 C.3       1 <0>        -0.0393
     15 C13        -4.9509   -5.0469    0.3254 C.2       1 <0>        -0.1349
     16 C14        -5.4004   -6.2709    0.4519 C.2       1 <0>        -0.1842
     17 C15         0.6843   -5.4587    0.3339 C.2       1 <0>         0.0516
     18 C16         0.5115   -6.7987    0.0254 C.2       1 <0>        -0.2389
     19 C17        -0.7316   -7.2927   -0.5875 C.2       1 <0>         0.4891
     20 O3         -1.7459   -6.4480   -0.8685 O.3       1 <0>        -0.6025
     21 N1         -0.8318   -8.5830   -0.8571 N.2       1 <0>        -0.6544
     22 C18         0.1520   -9.4391   -0.5915 C.2       1 <0>         0.6657
     23 O4         -0.0160  -10.6131   -0.8697 O.2       1 <0>        -0.5590
     24 N2          1.3181   -9.0805   -0.0350 N.am      1 <0>        -0.5488
     25 C19         1.5688   -7.7943    0.2912 C.2       1 <0>         0.5663
     26 O5          2.6288   -7.4675    0.7913 O.2       1 <0>        -0.5152
     27 C20         2.2947  -10.0556    0.2071 C.ar      1 <0>         0.1585
     28 C21         2.6123  -10.4135    1.5108 C.ar      1 <0>        -0.0883
     29 C22         3.5753  -11.3749    1.7468 C.ar      1 <0>        -0.1068
     30 C23         4.2239  -11.9810    0.6866 C.ar      1 <0>        -0.0941
     31 C24         3.9104  -11.6266   -0.6135 C.ar      1 <0>        -0.0821
     32 C25         2.9426  -10.6698   -0.8558 C.ar      1 <0>        -0.0673
     33 Br1         4.8004  -12.4578   -2.0601 Br        1 <0>        -0.0541
     34 H1          0.9148    0.7393   -2.6161 H         1 <0>         0.0754
     35 H2         -0.8147    0.5120   -2.9701 H         1 <0>         0.0655
     36 H3         -0.3100    1.2275   -1.4204 H         1 <0>         0.0634
     37 H4          0.2514   -1.6325   -2.3273 H         1 <0>         0.0612
     38 H5          0.7561   -0.9170   -0.7776 H         1 <0>         0.0594
     39 H6          0.6259   -3.0011   -0.7842 H         1 <0>         0.1299
     40 H7         -1.7917   -5.8732    1.3189 H         1 <0>         0.1258
     41 H8         -3.8997   -1.4587    2.1172 H         1 <0>         0.0757
     42 H9         -2.8349   -0.3927    1.1695 H         1 <0>         0.0772
     43 H10        -6.6131    1.2698    0.4659 H         1 <0>         0.2208
     44 H11        -3.8952   -5.1951    2.1741 H         1 <0>         0.0737
     45 H12        -4.5494   -3.5780    1.8205 H         1 <0>         0.0746
     46 H13        -5.2150   -4.4617   -0.5430 H         1 <0>         0.1067
     47 H14        -6.0351   -6.6948   -0.3123 H         1 <0>         0.0939
     48 H15        -5.1364   -6.8561    1.3204 H         1 <0>         0.0917
     49 H16         1.6594   -5.0913    0.6178 H         1 <0>         0.1407
     50 H17         2.1068   -9.9401    2.3395 H         1 <0>         0.1280
     51 H18         3.8223  -11.6533    2.7607 H         1 <0>         0.1356
     52 H19         4.9768  -12.7323    0.8738 H         1 <0>         0.1334
     53 H20         2.6943  -10.3969   -1.8708 H         1 <0>         0.1329
@<TRIPOS>BOND
     1    1    2 1
     2    1   34 1
     3    1   35 1
     4    1   36 1
     5    2    3 1
     6    2   37 1
     7    2   38 1
     8    3    4 1
     9    4    9 ar
    10    4    5 ar
    11    5    6 ar
    12    5   39 1
    13    6    7 ar
    14    6   17 1
    15    7    8 ar
    16    7   40 1
    17    8    9 ar
    18    8   14 1
    19    9   10 1
    20   10   11 1
    21   11   12 1
    22   11   41 1
    23   11   42 1
    24   12   13 3
    25   13   43 1
    26   14   15 1
    27   14   44 1
    28   14   45 1
    29   15   16 2
    30   15   46 1
    31   16   47 1
    32   16   48 1
    33   17   18 2
    34   17   49 1
    35   18   25 1
    36   18   19 1
    37   19   20 1
    38   19   21 2
    39   21   22 1
    40   22   23 2
    41   22   24 am
    42   24   25 am
    43   24   27 1
    44   25   26 2
    45   27   32 ar
    46   27   28 ar
    47   28   29 ar
    48   28   50 1
    49   29   30 ar
    50   29   51 1
    51   30   31 ar
    52   30   52 1
    53   31   32 ar
    54   31   33 1
    55   32   53 1
@<TRIPOS>MOLECULE
ZINC05605064
   32    34     0     0     0
SMALL
USER_CHARGES
4-(benzothiazol-2-yl-cyano-methylene)aminoaminobenzoic acid
@<TRIPOS>ATOM
      1 C1         -0.9230   10.0820    0.0613 C.ar      1 <0>        -0.1142
      2 C2         -2.2493   10.4913    0.0702 C.ar      1 <0>        -0.0874
      3 C3         -3.2522    9.5395    0.0689 C.ar      1 <0>        -0.0707
      4 C4         -2.9186    8.2074    0.0605 C.ar      1 <0>        -0.1369
      5 C5         -1.5765    7.7586    0.0517 C.ar      1 <0>         0.0773
      6 C6         -0.5818    8.7659    0.0525 C.ar      1 <0>        -0.0490
      7 N1         -1.4073    6.4222    0.0494 N.2       1 <0>        -0.4611
      8 C7         -2.4204    5.5811    0.0439 C.2       1 <0>         0.2186
      9 S1         -3.8286    6.6817    0.0565 S.3       1 <0>         0.0260
     10 C8         -2.3987    4.1065    0.0357 C.2       1 <0>         0.1684
     11 N2         -1.2514    3.4665    0.0268 N.2       1 <0>        -0.0808
     12 N3         -1.2308    2.0657    0.0191 N.pl3     1 <0>        -0.5332
     13 C9         -0.0168    1.3885    0.0097 C.ar      1 <0>         0.1620
     14 C10         1.1780    2.1040    0.0021 C.ar      1 <0>        -0.1532
     15 C11         2.3813    1.4365   -0.0131 C.ar      1 <0>        -0.0475
     16 C12         2.4035    0.0384   -0.0203 C.ar      1 <0>        -0.1299
     17 C13         1.2022   -0.6772   -0.0126 C.ar      1 <0>        -0.0543
     18 C14         0.0021   -0.0041    0.0020 C.ar      1 <0>        -0.1708
     19 C15         3.6912   -0.6799   -0.0355 C.2       1 <0>         0.4895
     20 O1          3.7091   -1.8949   -0.0414 O.co2     1 <0>        -0.6327
     21 C16        -3.6281    3.3723    0.0376 C.1       1 <0>         0.2177
     22 N4         -4.6034    2.7898    0.0390 N.1       1 <0>        -0.3588
     23 H1         -0.1421   10.8281    0.0616 H         1 <0>         0.1363
     24 H2         -2.4954   11.5429    0.0774 H         1 <0>         0.1399
     25 H3         -4.2892    9.8411    0.0756 H         1 <0>         0.1354
     26 H4          0.4611    8.4855    0.0456 H         1 <0>         0.1387
     27 H5         -2.0636    1.5683    0.0204 H         1 <0>         0.3967
     28 H6          1.1602    3.1839    0.0078 H         1 <0>         0.1339
     29 H7          3.3075    1.9919   -0.0190 H         1 <0>         0.1382
     30 H8          1.2162   -1.7571   -0.0179 H         1 <0>         0.1349
     31 H9         -0.9261   -0.5562    0.0080 H         1 <0>         0.1204
     32 O2          4.8481    0.0110   -0.0429 O.co2     1 <0>        -0.7536
@<TRIPOS>BOND
     1    1    6 ar
     2    1    2 ar
     3    1   23 1
     4    2    3 ar
     5    2   24 1
     6    3    4 ar
     7    3   25 1
     8    4    9 1
     9    4    5 ar
    10    5    6 ar
    11    5    7 1
    12    6   26 1
    13    7    8 2
    14    8    9 1
    15    8   10 1
    16   10   11 2
    17   10   21 1
    18   11   12 1
    19   12   13 1
    20   12   27 1
    21   13   18 ar
    22   13   14 ar
    23   14   15 ar
    24   14   28 1
    25   15   16 ar
    26   15   29 1
    27   16   17 ar
    28   16   19 1
    29   17   18 ar
    30   17   30 1
    31   18   31 1
    32   19   20 2
    33   19   32 1
    34   21   22 3
@<TRIPOS>MOLECULE
ZINC13402427
   40    43     0     0     0
SMALL
USER_CHARGES
4-[(3aR,4R,9bR)-6-chloro-9-nitro-3a,4,5,9b-tetrahydro-3H-cyclopenta[c]quinolin-4-yl]benzoic acid
@<TRIPOS>ATOM
      1 C1         -4.8093    0.7049    0.5462 C.ar      1 <0>        -0.1344
      2 C2         -5.9150   -0.0731    0.8202 C.ar      1 <0>        -0.0699
      3 C3         -7.0071   -0.0595   -0.0498 C.ar      1 <0>        -0.1048
      4 C4         -6.9739    0.7470   -1.1892 C.ar      1 <0>        -0.0805
      5 C5         -5.8641    1.5242   -1.4481 C.ar      1 <0>        -0.1187
      6 C6         -4.7854    1.5060   -0.5817 C.ar      1 <0>        -0.0977
      7 C7         -3.5764    2.3579   -0.8712 C.3       1 <0>         0.1558
      8 H1         -3.5464    2.6146   -1.9301 H         1 <0>         0.1048
      9 C8         -3.6219    3.6198   -0.0351 C.3       1 <0>        -0.1125
     10 H2         -3.5023    3.4127    1.0284 H         1 <0>         0.0923
     11 C9         -4.7624    4.6116   -0.2902 C.3       1 <0>        -0.0846
     12 C10        -4.1026    5.9390    0.0922 C.2       1 <0>        -0.1450
     13 C11        -2.7863    5.8524   -0.0660 C.2       1 <0>        -0.1749
     14 C12        -2.4622    4.5035   -0.5916 C.3       1 <0>        -0.0487
     15 H3         -2.5629    4.5402   -1.6763 H         1 <0>         0.1066
     16 C13        -1.2007    3.8026   -0.2666 C.ar      1 <0>        -0.0538
     17 C14        -0.0395    4.4918    0.0147 C.ar      1 <0>         0.0059
     18 C15         1.1300    3.8115    0.2952 C.ar      1 <0>        -0.0894
     19 C16         1.1349    2.4283    0.2892 C.ar      1 <0>        -0.0782
     20 C17        -0.0213    1.7317    0.0130 C.ar      1 <0>        -0.0398
     21 C18        -1.2125    2.4058   -0.2684 C.ar      1 <0>         0.1652
     22 N1         -2.3512    1.6342   -0.4955 N.pl3     1 <0>        -0.6283
     23 Cl1         0.0038   -0.0041    0.0074 Cl        1 <0>        -0.0312
     24 N2         -0.0461    5.9719    0.0157 N.pl3     1 <0>         0.0234
     25 O1         -0.4984    6.5795   -0.9382 O.2       1 <0>        -0.1362
     26 O2          0.4007    6.5823    0.9703 O.3       1 <0>        -0.1500
     27 C19        -8.1924   -0.8942    0.2341 C.2       1 <0>         0.4865
     28 O3         -9.1410   -0.8800   -0.5244 O.co2     1 <0>        -0.6288
     29 H4         -3.9621    0.6920    1.2159 H         1 <0>         0.1076
     30 H5         -5.9342   -0.6946    1.7032 H         1 <0>         0.1326
     31 H6         -7.8153    0.7624   -1.8661 H         1 <0>         0.1300
     32 H7         -5.8370    2.1482   -2.3292 H         1 <0>         0.1185
     33 H8         -5.0557    4.6088   -1.3400 H         1 <0>         0.0879
     34 H9         -5.6163    4.3997    0.3533 H         1 <0>         0.0828
     35 H10        -4.6291    6.8159    0.4392 H         1 <0>         0.1345
     36 H11        -2.0722    6.6329    0.1515 H         1 <0>         0.1365
     37 H12         2.0354    4.3567    0.5175 H         1 <0>         0.1525
     38 H13         2.0481    1.8925    0.5021 H         1 <0>         0.1571
     39 H14        -2.5246    1.0046    0.2736 H         1 <0>         0.3788
     40 O4         -8.2211   -1.6711    1.3343 O.co2     1 <0>        -0.7522
@<TRIPOS>BOND
     1    1    6 ar
     2    1    2 ar
     3    1   29 1
     4    2    3 ar
     5    2   30 1
     6    3    4 ar
     7    3   27 1
     8    4    5 ar
     9    4   31 1
    10    5    6 ar
    11    5   32 1
    12    6    7 1
    13    7    8 1
    14    7   22 1
    15    7    9 1
    16    9   10 1
    17    9   14 1
    18    9   11 1
    19   11   12 1
    20   11   33 1
    21   11   34 1
    22   12   13 2
    23   12   35 1
    24   13   14 1
    25   13   36 1
    26   14   15 1
    27   14   16 1
    28   16   21 ar
    29   16   17 ar
    30   17   18 ar
    31   17   24 1
    32   18   19 ar
    33   18   37 1
    34   19   20 ar
    35   19   38 1
    36   20   21 ar
    37   20   23 1
    38   21   22 1
    39   22   39 1
    40   24   25 2
    41   24   26 1
    42   27   28 2
    43   27   40 1
@<TRIPOS>MOLECULE
ZINC21515362
   28    29     0     0     0
SMALL
USER_CHARGES
2-[(2,5-dichlorophenyl)amino]-5-nitro-benzoic acid
@<TRIPOS>ATOM
      1 C1          0.8632    7.2369    0.1685 C.ar      1 <0>        -0.0525
      2 C2          0.9814    5.8622    0.1523 C.ar      1 <0>        -0.1355
      3 C3          2.2365    5.2723    0.0687 C.ar      1 <0>         0.2202
      4 C4          3.3821    6.0827    0.0063 C.ar      1 <0>        -0.1180
      5 C5          3.2445    7.4734    0.0184 C.ar      1 <0>        -0.0064
      6 C6          1.9912    8.0394    0.1018 C.ar      1 <0>        -0.0613
      7 N1          1.8486    9.5126    0.1206 N.pl3     1 <0>         0.0347
      8 O1          0.7421   10.0164    0.1946 O.2       1 <0>        -0.1754
      9 O2          2.8376   10.2210    0.0621 O.3       1 <0>        -0.1607
     10 C7          4.7193    5.4708   -0.0764 C.2       1 <0>         0.4900
     11 O3          4.8300    4.2675   -0.2054 O.co2     1 <0>        -0.5986
     12 O4          5.8201    6.2454   -0.0091 O.co2     1 <0>        -0.7398
     13 N2          2.3582    3.8889    0.0527 N.pl3     1 <0>        -0.6800
     14 C8          2.7535    3.2086    1.2082 C.ar      1 <0>         0.2863
     15 C9          3.1079    3.9195    2.3474 C.ar      1 <0>        -0.1657
     16 C10         3.4979    3.2437    3.4883 C.ar      1 <0>         0.0215
     17 C11         3.5299    1.8599    3.4979 C.ar      1 <0>        -0.1668
     18 C12         3.1832    1.1495    2.3636 C.ar      1 <0>        -0.0534
     19 C13         2.7923    1.8191    1.2195 C.ar      1 <0>        -0.1013
     20 Cl1         2.3497    0.9259   -0.2018 Cl        1 <0>        -0.0718
     21 Cl2         3.9417    4.1312    4.9128 Cl        1 <0>        -0.0706
     22 H1         -0.1147    7.6905    0.2339 H         1 <0>         0.1516
     23 H2          0.0973    5.2441    0.2051 H         1 <0>         0.1470
     24 H3          4.1200    8.1038   -0.0326 H         1 <0>         0.1646
     25 H4          2.1435    3.3285   -0.8692 H         1 <0>         0.4373
     26 H5          3.0785    4.9990    2.3420 H         1 <0>         0.1310
     27 H6          3.8307    1.3341    4.3920 H         1 <0>         0.1352
     28 H7          3.2135    0.0700    2.3730 H         1 <0>         0.1384
@<TRIPOS>BOND
     1    1    6 ar
     2    1    2 ar
     3    1   22 1
     4    2    3 ar
     5    2   23 1
     6    3    4 ar
     7    3   13 1
     8    4    5 ar
     9    4   10 1
    10    5    6 ar
    11    5   24 1
    12    6    7 1
    13    7    8 2
    14    7    9 1
    15   10   11 2
    16   10   12 1
    17   13   14 1
    18   13   25 1
    19   14   19 ar
    20   14   15 ar
    21   15   16 ar
    22   15   26 1
    23   16   17 ar
    24   16   21 1
    25   17   18 ar
    26   17   27 1
    27   18   19 ar
    28   18   28 1
    29   19   20 1
@<TRIPOS>MOLECULE
ZINC41597296
   41    43     0     0     0
SMALL
USER_CHARGES

@<TRIPOS>ATOM
      1 C1         -0.0907    1.5053    0.0266 C.3       1 <0>        -0.1782
      2 C2         -0.0262   -0.0233    0.0109 C.3       1 <0>         0.0788
      3 C3          0.7053   -0.4900   -1.2493 C.3       1 <0>        -0.1486
      4 O1          0.6769   -0.4822    1.1673 O.3       1 <0>        -0.3129
      5 C4         -0.0430   -0.6219    2.3125 C.ar      1 <0>         0.0827
      6 C5         -1.4133   -0.4189    2.3004 C.ar      1 <0>        -0.1914
      7 C6         -2.1439   -0.5613    3.4656 C.ar      1 <0>        -0.1205
      8 C7         -1.5107   -0.9059    4.6455 C.ar      1 <0>        -0.1308
      9 C8         -0.1439   -1.1097    4.6662 C.ar      1 <0>        -0.0972
     10 C9          0.5949   -0.9752    3.4996 C.ar      1 <0>         0.1643
     11 N1          1.9791   -1.1873    3.5166 N.pl3     1 <0>        -0.6332
     12 C10         2.6906   -1.0221    4.6934 C.ar      1 <0>         0.5202
     13 N2          3.9801   -1.3344    4.7296 N.ar      1 <0>        -0.6248
     14 C11         4.6577   -1.1735    5.8608 C.ar      1 <0>         0.4460
     15 O2          5.9752   -1.4836    5.9273 O.3       1 <0>        -0.6633
     16 C12         3.9855   -0.6783    6.9795 C.ar      1 <0>        -0.1002
     17 N3          2.7026   -0.3855    6.8824 N.ar      1 <0>        -0.1678
     18 N4          2.0765   -0.5484    5.7698 N.ar      1 <0>        -0.4207
     19 C13         4.7162   -0.4810    8.2827 C.3       1 <0>         0.0489
     20 C14         5.2922    0.9107    8.3299 C.2       1 <0>        -0.0938
     21 C15         4.7333    2.0502    8.8059 C.2       1 <0>        -0.1800
     22 C16         5.4561    3.2269    8.7466 C.2       1 <0>        -0.1502
     23 C17         6.7025    3.2066    8.2142 C.2       1 <0>        -0.2126
     24 S1          6.8909    1.4850    7.7806 S.3       1 <0>         0.0577
     25 H1          0.9206    1.9117    0.0219 H         1 <0>         0.0658
     26 H2         -0.6270    1.8553   -0.8555 H         1 <0>         0.0673
     27 H3         -0.6118    1.8378    0.9243 H         1 <0>         0.0628
     28 H4         -1.0376   -0.4297    0.0156 H         1 <0>         0.0724
     29 H5          1.7166   -0.0835   -1.2539 H         1 <0>         0.0666
     30 H6          0.7512   -1.5789   -1.2604 H         1 <0>         0.0640
     31 H7          0.1690   -0.1399   -2.1313 H         1 <0>         0.0731
     32 H8         -1.9109   -0.1490    1.3807 H         1 <0>         0.1253
     33 H9         -3.2121   -0.4026    3.4542 H         1 <0>         0.1167
     34 H10        -2.0855   -1.0156    5.5532 H         1 <0>         0.1213
     35 H11         0.3482   -1.3785    5.5892 H         1 <0>         0.1623
     36 H12         2.4396   -1.4500    2.7043 H         1 <0>         0.4176
     37 H13         4.0221   -0.6153    9.1124 H         1 <0>         0.0886
     38 H14         5.5221   -1.2107    8.3615 H         1 <0>         0.0933
     39 H15         3.7380    2.0389    9.2249 H         1 <0>         0.1307
     40 H16         5.0340    4.1488    9.1185 H         1 <0>         0.1235
     41 H17         7.4018    4.0200    8.0886 H         1 <0>         0.1763
@<TRIPOS>BOND
     1    1    2 1
     2    1   25 1
     3    1   26 1
     4    1   27 1
     5    2    3 1
     6    2    4 1
     7    2   28 1
     8    3   29 1
     9    3   30 1
    10    3   31 1
    11    4    5 1
    12    5   10 ar
    13    5    6 ar
    14    6    7 ar
    15    6   32 1
    16    7    8 ar
    17    7   33 1
    18    8    9 ar
    19    8   34 1
    20    9   10 ar
    21    9   35 1
    22   10   11 1
    23   11   12 1
    24   11   36 1
    25   12   18 ar
    26   12   13 ar
    27   13   14 ar
    28   14   15 1
    29   14   16 ar
    30   16   17 ar
    31   16   19 1
    32   17   18 ar
    33   19   20 1
    34   19   37 1
    35   19   38 1
    36   20   24 1
    37   20   21 2
    38   21   22 1
    39   21   39 1
    40   22   23 2
    41   22   40 1
    42   23   24 1
    43   23   41 1
@<TRIPOS>MOLECULE
ZINC18146079
   38    40     0     0     0
SMALL
USER_CHARGES

@<TRIPOS>ATOM
      1 C1         -0.0184    1.5028    0.0103 C.3       1 <0>        -0.1163
      2 C2          0.0021   -0.0041    0.0020 C.ar      1 <0>        -0.0594
      3 C3          0.0057   -0.6882   -1.2002 C.ar      1 <0>        -0.1450
      4 C4          0.0244   -2.0709   -1.2128 C.ar      1 <0>        -0.0877
      5 C5          0.0396   -2.7738   -0.0242 C.ar      1 <0>        -0.1355
      6 C6          0.0360   -2.0899    1.1856 C.ar      1 <0>         0.1815
      7 C7          0.0228   -0.6998    1.1943 C.ar      1 <0>        -0.1290
      8 N1          0.0508   -2.7966    2.3885 N.pl3     1 <0>        -0.5063
      9 N2          0.0475   -2.1602    3.5105 N.2       1 <0>        -0.1068
     10 C8          0.0614   -2.8254    4.6427 C.2       1 <0>         0.1532
     11 C9          0.0804   -4.2572    4.6318 C.1       1 <0>         0.2462
     12 N3          0.0954   -5.3931    4.6231 N.1       1 <0>        -0.4025
     13 C10         0.0576   -2.0958    5.9290 C.ar      1 <0>         0.4315
     14 N4          0.0343   -0.7625    5.9082 N.ar      1 <0>        -0.6055
     15 C11         0.0292   -0.0559    7.0250 C.ar      1 <0>         0.4728
     16 O1          0.0050    1.2963    6.9894 O.3       1 <0>        -0.6634
     17 C12         0.0491   -0.7486    8.2597 C.ar      1 <0>        -0.2315
     18 C13         0.0448   -0.0764    9.4871 C.ar      1 <0>        -0.0267
     19 C14         0.0644   -0.7942   10.6468 C.ar      1 <0>        -0.1895
     20 C15         0.0885   -2.1861   10.6263 C.ar      1 <0>        -0.0833
     21 C16         0.0938   -2.8713    9.4481 C.ar      1 <0>        -0.1405
     22 C17         0.0737   -2.1654    8.2364 C.ar      1 <0>         0.1970
     23 N5          0.0719   -2.7916    7.0525 N.ar      1 <0>        -0.6011
     24 C18         0.0595   -4.2806   -0.0390 C.3       1 <0>        -0.1138
     25 H1          1.0042    1.8801    0.0026 H         1 <0>         0.0722
     26 H2         -0.5455    1.8639   -0.8728 H         1 <0>         0.0651
     27 H3         -0.5286    1.8543    0.9071 H         1 <0>         0.0729
     28 H4         -0.0065   -0.1412   -2.1313 H         1 <0>         0.1218
     29 H5          0.0269   -2.6017   -2.1534 H         1 <0>         0.1255
     30 H6          0.0248   -0.1649    2.1325 H         1 <0>         0.1491
     31 H7          0.0637   -3.7665    2.3810 H         1 <0>         0.3838
     32 H8          0.0265    1.0030    9.5159 H         1 <0>         0.1236
     33 H9          0.0614   -0.2755   11.5941 H         1 <0>         0.1116
     34 H10         0.1037   -2.7313   11.5585 H         1 <0>         0.1139
     35 H11         0.1127   -3.9512    9.4477 H         1 <0>         0.1209
     36 H12         1.0919   -4.6303   -0.0476 H         1 <0>         0.0713
     37 H13        -0.4450   -4.6594    0.8499 H         1 <0>         0.0559
     38 H14        -0.4540   -4.6420   -0.9300 H         1 <0>         0.0741
@<TRIPOS>BOND
     1    1    2 1
     2    1   25 1
     3    1   26 1
     4    1   27 1
     5    2    7 ar
     6    2    3 ar
     7    3    4 ar
     8    3   28 1
     9    4    5 ar
    10    4   29 1
    11    5    6 ar
    12    5   24 1
    13    6    7 ar
    14    6    8 1
    15    7   30 1
    16    8    9 1
    17    8   31 1
    18    9   10 2
    19   10   11 1
    20   10   13 1
    21   11   12 3
    22   13   23 ar
    23   13   14 ar
    24   14   15 ar
    25   15   16 1
    26   15   17 ar
    27   17   22 ar
    28   17   18 ar
    29   18   19 ar
    30   18   32 1
    31   19   20 ar
    32   19   33 1
    33   20   21 ar
    34   20   34 1
    35   21   22 ar
    36   21   35 1
    37   22   23 ar
    38   24   36 1
    39   24   37 1
    40   24   38 1
@<TRIPOS>MOLECULE
ZINC01599627
   43    45     0     0     0
SMALL
USER_CHARGES
2-[(2-carboxyphenyl)sulfanyl-(3-nitrophenyl)-methyl]sulfanylbenzoic acid
@<TRIPOS>ATOM
      1 C1          0.1648    9.9686    1.3133 C.ar      1 <0>        -0.1436
      2 C2         -0.3447    9.1688    0.3014 C.ar      1 <0>        -0.1025
      3 C3         -0.2449    7.7957    0.3788 C.ar      1 <0>        -0.1254
      4 C4          0.3601    7.2022    1.4813 C.ar      1 <0>        -0.0806
      5 C5          0.8772    8.0097    2.5080 C.ar      1 <0>        -0.1050
      6 C6          0.7722    9.4005    2.4108 C.ar      1 <0>        -0.0658
      7 C7          1.5258    7.3955    3.6785 C.2       1 <0>         0.4898
      8 O1          1.6153    6.1861    3.7586 O.co2     1 <0>        -0.5999
      9 S1          0.4839    5.4477    1.5864 S.3       1 <0>         0.0898
     10 C8         -0.1331    4.9903   -0.0525 C.3       1 <0>        -0.2028
     11 C9         -0.2898    3.4935   -0.1305 C.ar      1 <0>        -0.0293
     12 C10         0.8076    2.6730    0.0542 C.ar      1 <0>        -0.0386
     13 C11         0.6638    1.3002   -0.0169 C.ar      1 <0>        -0.1124
     14 C12        -0.5772    0.7475   -0.2732 C.ar      1 <0>        -0.0634
     15 C13        -1.6732    1.5679   -0.4635 C.ar      1 <0>        -0.0446
     16 C14        -1.5304    2.9409   -0.3872 C.ar      1 <0>        -0.0499
     17 N1         -3.0007    0.9763   -0.7439 N.pl3     1 <0>         0.0372
     18 O2         -3.1273   -0.2335   -0.8069 O.2       1 <0>        -0.1737
     19 O3         -3.9665    1.6993   -0.9117 O.3       1 <0>        -0.1672
     20 S2          1.0417    5.5406   -1.3147 S.3       1 <0>         0.0822
     21 C15        -0.0152    5.5702   -2.7242 C.ar      1 <0>        -0.0820
     22 C16        -1.3569    5.2272   -2.5994 C.ar      1 <0>        -0.1594
     23 C17        -2.1828    5.2559   -3.7034 C.ar      1 <0>        -0.1013
     24 C18        -1.6829    5.6155   -4.9458 C.ar      1 <0>        -0.1526
     25 C19        -0.3559    5.9535   -5.0914 C.ar      1 <0>        -0.0598
     26 C20         0.4943    5.9349   -3.9817 C.ar      1 <0>        -0.1077
     27 C21         1.9144    6.2947   -4.1299 C.2       1 <0>         0.4856
     28 O4          2.6500    6.2768   -3.1627 O.co2     1 <0>        -0.5913
     29 H1          0.0850   11.0431    1.2400 H         1 <0>         0.1159
     30 H2         -0.8188    9.6247   -0.5552 H         1 <0>         0.1163
     31 H3         -0.6403    7.1804   -0.4158 H         1 <0>         0.1194
     32 H4          1.1674   10.0286    3.1955 H         1 <0>         0.1314
     33 H5         -1.0989    5.4661   -0.2229 H         1 <0>         0.1134
     34 H6          1.7771    3.1048    0.2544 H         1 <0>         0.1540
     35 H7          1.5210    0.6593    0.1274 H         1 <0>         0.1493
     36 H8         -0.6895   -0.3252   -0.3291 H         1 <0>         0.1492
     37 H9         -2.3875    3.5819   -0.5318 H         1 <0>         0.1489
     38 H10        -1.7535    4.9417   -1.6363 H         1 <0>         0.1184
     39 H11        -3.2251    4.9923   -3.6004 H         1 <0>         0.1159
     40 H12        -2.3380    5.6301   -5.8044 H         1 <0>         0.1151
     41 H13         0.0276    6.2323   -6.0617 H         1 <0>         0.1311
     42 O5          2.0204    8.1744    4.6609 O.co2     1 <0>        -0.7512
     43 O6          2.3984    6.6439   -5.3384 O.co2     1 <0>        -0.7531
@<TRIPOS>BOND
     1    1    6 ar
     2    1    2 ar
     3    1   29 1
     4    2    3 ar
     5    2   30 1
     6    3    4 ar
     7    3   31 1
     8    4    5 ar
     9    4    9 1
    10    5    6 ar
    11    5    7 1
    12    6   32 1
    13    7    8 2
    14    7   42 1
    15    9   10 1
    16   10   11 1
    17   10   20 1
    18   10   33 1
    19   11   16 ar
    20   11   12 ar
    21   12   13 ar
    22   12   34 1
    23   13   14 ar
    24   13   35 1
    25   14   15 ar
    26   14   36 1
    27   15   16 ar
    28   15   17 1
    29   16   37 1
    30   17   18 2
    31   17   19 1
    32   20   21 1
    33   21   26 ar
    34   21   22 ar
    35   22   23 ar
    36   22   38 1
    37   23   24 ar
    38   23   39 1
    39   24   25 ar
    40   24   40 1
    41   25   26 ar
    42   25   41 1
    43   26   27 1
    44   27   28 2
    45   27   43 1
@<TRIPOS>MOLECULE
ZINC16910593
   40    42     0     0     0
SMALL
USER_CHARGES
(2S)-2-[2-[(E)-[2-[(4-fluorophenyl)amino]-4-oxo-thiazol-5-ylidene]methyl]phenoxy]propanoic acid
@<TRIPOS>ATOM
      1 C1          2.6047    2.3066   -0.3315 C.3       1 <0>        -0.1554
      2 C2          1.4415    1.3177   -0.4322 C.3       1 <0>         0.0384
      3 H1          1.3333    0.7221    0.4863 H         1 <0>         0.0728
      4 C3          0.1681    2.0683   -0.7258 C.2       1 <0>         0.4748
      5 O1         -0.4072    1.8951   -1.7741 O.co2     1 <0>        -0.6115
      6 O2         -0.3269    2.9293    0.1772 O.co2     1 <0>        -0.7609
      7 O3          1.6984    0.3856   -1.4844 O.3       1 <0>        -0.2848
      8 C4          2.4518   -0.7000   -1.1754 C.ar      1 <0>         0.1655
      9 C5          3.0016   -0.8286    0.0901 C.ar      1 <0>        -0.2358
     10 C6          3.7680   -1.9344    0.4038 C.ar      1 <0>        -0.0700
     11 C7          3.9938   -2.9233   -0.5405 C.ar      1 <0>        -0.1842
     12 C8          3.4566   -2.8140   -1.8041 C.ar      1 <0>         0.0005
     13 C9          2.6733   -1.7017   -2.1350 C.ar      1 <0>        -0.1090
     14 C10         2.0918   -1.5806   -3.4770 C.2       1 <0>         0.0298
     15 C11         2.8003   -1.9835   -4.5626 C.2       1 <0>        -0.2184
     16 C12         4.2075   -2.4358   -4.6631 C.2       1 <0>         0.5326
     17 O4          4.9359   -2.4961   -3.6853 O.2       1 <0>        -0.5266
     18 N1          4.6285   -2.7691   -5.8631 N.2       1 <0>        -0.7191
     19 C13         3.8491   -2.7088   -6.9313 C.2       1 <0>         0.4559
     20 S1          2.2951   -2.1250   -6.2723 S.3       1 <0>        -0.1357
     21 N2          4.1580   -3.0246   -8.2288 N.2       1 <0>        -0.5878
     22 C14         5.4712   -3.3637   -8.5726 C.ar      1 <0>         0.1670
     23 C15         6.5384   -2.7775   -7.9046 C.ar      1 <0>        -0.1245
     24 C16         7.8337   -3.1180   -8.2417 C.ar      1 <0>        -0.1337
     25 C17         8.0690   -4.0347   -9.2527 C.ar      1 <0>         0.0282
     26 C18         7.0064   -4.6162   -9.9239 C.ar      1 <0>        -0.1384
     27 C19         5.7094   -4.2828   -9.5862 C.ar      1 <0>        -0.1241
     28 F1          9.3369   -4.3625   -9.5843 F         1 <0>        -0.1600
     29 H2          3.5342    1.7588   -0.1172 H         1 <0>         0.0521
     30 H3          2.4069    3.0241    0.4785 H         1 <0>         0.0752
     31 H4          2.7092    2.8479   -1.2834 H         1 <0>         0.0612
     32 H5          2.8309   -0.0629    0.8323 H         1 <0>         0.1280
     33 H6          4.1938   -2.0290    1.3918 H         1 <0>         0.1142
     34 H7          4.5942   -3.7837   -0.2844 H         1 <0>         0.1145
     35 H8          3.6356   -3.5870   -2.5368 H         1 <0>         0.1294
     36 H9          1.0819   -1.1634   -3.6032 H         1 <0>         0.1399
     37 H10         6.3555   -2.0592   -7.1192 H         1 <0>         0.1368
     38 H11         8.6638   -2.6659   -7.7193 H         1 <0>         0.1188
     39 H12         7.1921   -5.3311  -10.7118 H         1 <0>         0.1208
     40 H13         4.8810   -4.7368  -10.1097 H         1 <0>         0.1235
@<TRIPOS>BOND
     1    1    2 1
     2    1   29 1
     3    1   30 1
     4    1   31 1
     5    2    3 1
     6    2    4 1
     7    2    7 1
     8    4    5 2
     9    4    6 1
    10    7    8 1
    11    8   13 ar
    12    8    9 ar
    13    9   10 ar
    14    9   32 1
    15   10   11 ar
    16   10   33 1
    17   11   12 ar
    18   11   34 1
    19   12   13 ar
    20   12   35 1
    21   13   14 1
    22   14   15 2
    23   14   36 1
    24   15   20 1
    25   15   16 1
    26   16   17 2
    27   16   18 1
    28   18   19 2
    29   19   20 1
    30   19   21 1
    31   21   22 1
    32   22   27 ar
    33   22   23 ar
    34   23   24 ar
    35   23   37 1
    36   24   25 ar
    37   24   38 1
    38   25   26 ar
    39   25   28 1
    40   26   27 ar
    41   26   39 1
    42   27   40 1
@<TRIPOS>MOLECULE
ZINC35675029
   44    46     0     0     0
SMALL
USER_CHARGES

@<TRIPOS>ATOM
      1 C1          0.5609   -1.3429   -3.6248 C.3       1 <0>        -0.1450
      2 C2          0.0481   -1.2405   -2.1869 C.3       1 <0>         0.0774
      3 C3          0.2218    0.1942   -1.6844 C.3       1 <0>        -0.1679
      4 O1         -1.3359   -1.5943   -2.1485 O.3       1 <0>        -0.3425
      5 C4         -1.7935   -2.1558   -1.0093 C.2       1 <0>         0.5670
      6 O2         -1.0362   -2.3393   -0.0745 O.2       1 <0>        -0.5195
      7 C5         -3.1516   -2.5303   -0.9024 C.2       1 <0>        -0.3538
      8 C6         -3.6196   -3.6603   -1.5058 C.2       1 <0>         0.1729
      9 N1         -4.8990   -4.0079   -1.4017 N.2       1 <0>        -0.5880
     10 C7         -5.8015   -3.3356   -0.7414 C.2       1 <0>         0.2815
     11 N2         -5.5383   -2.1718   -0.0640 N.pl3     1 <0>        -0.5028
     12 C8         -4.1321   -1.6941   -0.1095 C.3       1 <0>         0.2813
     13 H1         -3.7638   -1.6240    0.9140 H         1 <0>         0.0752
     14 C9         -4.1367   -0.3047   -0.6930 C.ar      1 <0>        -0.0460
     15 C10        -4.9259   -0.0192   -1.7918 C.ar      1 <0>        -0.0861
     16 C11        -4.9311    1.2547   -2.3282 C.ar      1 <0>        -0.0894
     17 C12        -4.1468    2.2447   -1.7667 C.ar      1 <0>        -0.1555
     18 C13        -3.3562    1.9601   -0.6665 C.ar      1 <0>         0.0959
     19 C14        -3.3565    0.6850   -0.1263 C.ar      1 <0>        -0.1347
     20 F1         -2.5888    2.9268   -0.1172 F         1 <0>        -0.1477
     21 C15        -6.6005   -1.5952    0.5765 C.2       1 <0>         0.2188
     22 C16        -7.8926   -2.2781    0.4698 C.2       1 <0>        -0.4933
     23 S1         -7.5375   -3.6184   -0.4786 S.3       1 <0>         0.2023
     24 C17        -6.4616   -0.4243    1.2907 C.2       1 <0>        -0.4297
     25 C18        -7.6043    0.2175    1.8274 C.2       1 <0>         0.4945
     26 O3         -8.8013   -0.3645    1.7353 O.co2     1 <0>        -0.7424
     27 O4         -7.4837    1.4043    2.4251 O.co2     1 <0>        -0.7805
     28 C19        -2.6757   -4.5253   -2.3007 C.3       1 <0>         0.5211
     29 F2         -1.3664   -4.0607   -2.1354 F         1 <0>        -0.1707
     30 F3         -2.7620   -5.8467   -1.8495 F         1 <0>        -0.1711
     31 F4         -3.0222   -4.4714   -3.6550 F         1 <0>        -0.1706
     32 H2          1.6166   -1.0729   -3.6541 H         1 <0>         0.0686
     33 H3          0.4372   -2.3649   -3.9827 H         1 <0>         0.0615
     34 H4         -0.0056   -0.6637   -4.2618 H         1 <0>         0.0643
     35 H5          0.6146   -1.9197   -1.5499 H         1 <0>         0.0775
     36 H6         -0.1436    0.2671   -0.6601 H         1 <0>         0.0612
     37 H7          1.2774    0.4641   -1.7137 H         1 <0>         0.0647
     38 H8         -0.3447    0.8734   -2.3215 H         1 <0>         0.0633
     39 H9         -5.5385   -0.7923   -2.2316 H         1 <0>         0.1177
     40 H10        -5.5480    1.4765   -3.1865 H         1 <0>         0.1268
     41 H11        -4.1505    3.2398   -2.1864 H         1 <0>         0.1272
     42 H12        -2.7435    0.4629    0.7347 H         1 <0>         0.1262
     43 H13        -8.8418   -1.9899    0.8968 H         1 <0>         0.2206
     44 H14        -5.4814    0.0035    1.4410 H         1 <0>         0.0693
@<TRIPOS>BOND
     1    1    2 1
     2    1   32 1
     3    1   33 1
     4    1   34 1
     5    2    3 1
     6    2    4 1
     7    2   35 1
     8    3   36 1
     9    3   37 1
    10    3   38 1
    11    4    5 1
    12    5    6 2
    13    5    7 1
    14    7   12 1
    15    7    8 2
    16    8    9 1
    17    8   28 1
    18    9   10 2
    19   10   23 1
    20   10   11 1
    21   11   12 1
    22   11   21 1
    23   12   13 1
    24   12   14 1
    25   14   19 ar
    26   14   15 ar
    27   15   16 ar
    28   15   39 1
    29   16   17 ar
    30   16   40 1
    31   17   18 ar
    32   17   41 1
    33   18   19 ar
    34   18   20 1
    35   19   42 1
    36   21   22 2
    37   21   24 1
    38   22   23 1
    39   22   43 1
    40   24   25 2
    41   24   44 1
    42   25   26 1
    43   25   27 1
    44   28   29 1
    45   28   30 1
    46   28   31 1
@<TRIPOS>MOLECULE
ZINC13278093
   47    51     0     0     0
SMALL
USER_CHARGES

@<TRIPOS>ATOM
      1 C1         -1.6870    0.6723    0.2690 C.3       1 <0>        -0.1193
      2 C2         -0.6905   -0.4406    0.0701 C.ar      1 <0>        -0.0577
      3 C3         -0.6923   -1.1683   -1.1054 C.ar      1 <0>        -0.1249
      4 C4          0.2216   -2.1889   -1.2878 C.ar      1 <0>        -0.1211
      5 C5          1.1380   -2.4819   -0.2948 C.ar      1 <0>        -0.1300
      6 C6          1.1404   -1.7538    0.8800 C.ar      1 <0>        -0.0871
      7 C7          0.2290   -0.7300    1.0607 C.ar      1 <0>        -0.0638
      8 C8          0.2350    0.0673    2.3394 C.3       1 <0>         0.2499
      9 H1         -0.5554    0.8175    2.3166 H         1 <0>         0.0892
     10 C9          1.5778    0.7333    2.5298 C.2       1 <0>        -0.4710
     11 C10         2.0928    0.2500    3.6881 C.2       1 <0>         0.2941
     12 C11         1.1395   -0.7152    4.2763 C.2       1 <0>         0.5071
     13 O1          1.3119   -1.3200    5.3155 O.2       1 <0>        -0.4864
     14 N1          0.0513   -0.8242    3.4906 N.am      1 <0>        -0.5007
     15 C12        -1.0447   -1.6320    3.7258 C.2       1 <0>         0.3882
     16 N2         -2.1290   -1.7853    2.9972 N.2       1 <0>        -0.5357
     17 C13        -3.1258   -2.6115    3.3457 C.ar      1 <0>         0.1034
     18 C14        -4.3356   -2.8598    2.6486 C.ar      1 <0>        -0.0906
     19 C15        -5.2550   -3.7298    3.1313 C.ar      1 <0>        -0.0727
     20 C16        -5.0498   -4.4186    4.3371 C.ar      1 <0>        -0.1215
     21 C17        -3.8658   -4.1973    5.0518 C.ar      1 <0>        -0.0287
     22 C18        -2.9413   -3.3189    4.5601 C.ar      1 <0>        -0.1733
     23 S1         -1.3478   -2.7417    5.0941 S.3       1 <0>         0.0257
     24 C19        -6.0630   -5.3579    4.8424 C.2       1 <0>         0.5268
     25 O2         -7.0942   -5.5438    4.2106 O.co2     1 <0>        -0.6876
     26 O3         -5.8744   -5.9533    5.8946 O.co2     1 <0>        -0.6865
     27 O4          3.2869    0.5952    4.2192 O.3       1 <0>        -0.5919
     28 C20         2.1813    1.6782    1.6671 C.2       1 <0>         0.4548
     29 O5          3.3157    2.0548    1.8779 O.2       1 <0>        -0.5039
     30 C21         1.4156    2.2172    0.4862 C.3       1 <0>        -0.2013
     31 C22         2.1739    2.3803   -0.8326 C.3       1 <0>        -0.1567
     32 C23         1.7842    3.6145   -0.0166 C.3       1 <0>        -0.1644
     33 H2         -1.2369    1.6201   -0.0264 H         1 <0>         0.0678
     34 H3         -2.5696    0.4832   -0.3421 H         1 <0>         0.0633
     35 H4         -1.9753    0.7186    1.3191 H         1 <0>         0.0754
     36 H5         -1.4081   -0.9394   -1.8811 H         1 <0>         0.1149
     37 H6          0.2197   -2.7579   -2.2058 H         1 <0>         0.1129
     38 H7          1.8517   -3.2799   -0.4370 H         1 <0>         0.1138
     39 H8          1.8560   -1.9829    1.6558 H         1 <0>         0.1129
     40 H9         -4.5271   -2.3468    1.7177 H         1 <0>         0.1217
     41 H10        -6.1663   -3.8968    2.5763 H         1 <0>         0.1337
     42 H11        -3.6850   -4.7158    5.9819 H         1 <0>         0.1336
     43 H12         0.3676    1.9228    0.4315 H         1 <0>         0.1160
     44 H13         3.2266    2.0978   -0.8461 H         1 <0>         0.0940
     45 H14         1.6248    2.1931   -1.7554 H         1 <0>         0.0903
     46 H15         0.9786    4.2392   -0.4025 H         1 <0>         0.0898
     47 H16         2.5804    4.1439    0.5067 H         1 <0>         0.0973
@<TRIPOS>BOND
     1    1    2 1
     2    1   33 1
     3    1   34 1
     4    1   35 1
     5    2    7 ar
     6    2    3 ar
     7    3    4 ar
     8    3   36 1
     9    4    5 ar
    10    4   37 1
    11    5    6 ar
    12    5   38 1
    13    6    7 ar
    14    6   39 1
    15    7    8 1
    16    8    9 1
    17    8   14 1
    18    8   10 1
    19   10   11 2
    20   10   28 1
    21   11   12 1
    22   11   27 1
    23   12   13 2
    24   12   14 am
    25   14   15 1
    26   15   23 1
    27   15   16 2
    28   16   17 1
    29   17   22 ar
    30   17   18 ar
    31   18   19 ar
    32   18   40 1
    33   19   20 ar
    34   19   41 1
    35   20   21 ar
    36   20   24 1
    37   21   22 ar
    38   21   42 1
    39   22   23 1
    40   24   25 2
    41   24   26 1
    42   28   29 2
    43   28   30 1
    44   30   32 1
    45   30   31 1
    46   30   43 1
    47   31   32 1
    48   31   44 1
    49   31   45 1
    50   32   46 1
    51   32   47 1
@<TRIPOS>MOLECULE
ZINC38386464
   40    43     0     0     0
SMALL
USER_CHARGES

@<TRIPOS>ATOM
      1 C1         -0.0164    1.3552    0.0095 C.ar      1 <0>        -0.1146
      2 C2          1.1548    2.1005    0.0023 C.ar      1 <0>        -0.1171
      3 C3          2.3732    1.4477   -0.0128 C.ar      1 <0>        -0.0601
      4 C4          2.4033    0.0745   -0.0204 C.ar      1 <0>        -0.1626
      5 C5          1.2274   -0.7129   -0.0134 C.ar      1 <0>         0.0963
      6 C6          0.0021   -0.0041    0.0020 C.ar      1 <0>        -0.0734
      7 N1          1.4175   -2.0464   -0.0223 N.2       1 <0>        -0.5273
      8 C7          2.6146   -2.5901   -0.0366 C.2       1 <0>         0.2619
      9 S1          3.6832   -1.1573   -0.0391 S.3       1 <0>        -0.0089
     10 C8          2.9831   -4.0224   -0.0478 C.ar      1 <0>        -0.0109
     11 C9          1.9880   -5.0014   -0.0493 C.ar      1 <0>        -0.1702
     12 C10         2.3341   -6.3372   -0.0592 C.ar      1 <0>        -0.0710
     13 C11         3.6650   -6.7112   -0.0677 C.ar      1 <0>        -0.2343
     14 C12         4.6632   -5.7441   -0.0662 C.ar      1 <0>         0.2810
     15 C13         4.3253   -4.3991   -0.0626 C.ar      1 <0>        -0.1413
     16 N2          6.0067   -6.1269   -0.0744 N.2       1 <0>        -1.0866
     17 S2          6.4100   -7.7330   -0.0858 S.o2      1 <0>         2.6150
     18 O1          5.9801   -8.2685    1.1583 O.2       1 <0>        -1.0275
     19 O2          5.9692   -8.2536   -1.3323 O.2       1 <0>        -1.0375
     20 C14         8.1694   -7.8283   -0.0940 C.ar      1 <0>        -0.6349
     21 C15         8.8538   -7.8527   -1.2968 C.ar      1 <0>        -0.0335
     22 C16        10.2353   -7.9274   -1.3129 C.ar      1 <0>        -0.1672
     23 C17        10.9405   -7.9786   -0.1285 C.ar      1 <0>        -0.0479
     24 C18        10.2564   -7.9543    1.0893 C.ar      1 <0>        -0.1634
     25 C19         8.8614   -7.8726    1.0979 C.ar      1 <0>         0.0138
     26 C20        11.0036   -8.0086    2.3604 C.2       1 <0>         0.5254
     27 O3         12.2246   -8.0750    2.3495 O.co2     1 <0>        -0.6962
     28 O4         10.4018   -7.9872    3.4248 O.co2     1 <0>        -0.6835
     29 H1         -0.9665    1.8685    0.0259 H         1 <0>         0.1264
     30 H2          1.1144    3.1797    0.0081 H         1 <0>         0.1313
     31 H3          3.2936    2.0126   -0.0189 H         1 <0>         0.1292
     32 H4         -0.9297   -0.5500    0.0079 H         1 <0>         0.1279
     33 H5          0.9472   -4.7133   -0.0424 H         1 <0>         0.1155
     34 H6          1.5627   -7.0930   -0.0600 H         1 <0>         0.1116
     35 H7          3.9298   -7.7582   -0.0750 H         1 <0>         0.1047
     36 H8          5.0993   -3.6459   -0.0663 H         1 <0>         0.1199
     37 H9          8.3068   -7.8136   -2.2272 H         1 <0>         0.1265
     38 H10        10.7628   -7.9461   -2.2551 H         1 <0>         0.1172
     39 H11        12.0188   -8.0376   -0.1426 H         1 <0>         0.1266
     40 H12         8.3264   -7.8486    2.0358 H         1 <0>         0.1398
@<TRIPOS>BOND
     1    1    6 ar
     2    1    2 ar
     3    1   29 1
     4    2    3 ar
     5    2   30 1
     6    3    4 ar
     7    3   31 1
     8    4    9 1
     9    4    5 ar
    10    5    6 ar
    11    5    7 1
    12    6   32 1
    13    7    8 2
    14    8    9 1
    15    8   10 1
    16   10   15 ar
    17   10   11 ar
    18   11   12 ar
    19   11   33 1
    20   12   13 ar
    21   12   34 1
    22   13   14 ar
    23   13   35 1
    24   14   15 ar
    25   14   16 1
    26   15   36 1
    27   16   17 1
    28   17   18 2
    29   17   19 2
    30   17   20 1
    31   20   25 ar
    32   20   21 ar
    33   21   22 ar
    34   21   37 1
    35   22   23 ar
    36   22   38 1
    37   23   24 ar
    38   23   39 1
    39   24   25 ar
    40   24   26 1
    41   25   40 1
    42   26   27 2
    43   26   28 1
@<TRIPOS>MOLECULE
ZINC08424551
   53    57     0     0     0
SMALL
USER_CHARGES
[4-[2-(2-hydroxy-5-nitro-phenyl)-5-phenyl-1H-imidazol-4-yl]phenyl]-phenyl-methanone
@<TRIPOS>ATOM
      1 C1          4.7647    7.8400   -2.4733 C.ar      1 <0>        -0.1239
      2 C2          5.5090    8.4400   -1.4659 C.ar      1 <0>        -0.1156
      3 C3          6.3983    7.7054   -0.7365 C.ar      1 <0>        -0.1140
      4 C4          6.5598    6.3290   -1.0100 C.ar      1 <0>        -0.0042
      5 C5          5.8009    5.7322   -2.0412 C.ar      1 <0>        -0.0936
      6 C6          4.9142    6.4877   -2.7522 C.ar      1 <0>        -0.1158
      7 C7          7.4750    5.5587   -0.2639 C.2       1 <0>        -0.0114
      8 C8          7.2524    4.2043    0.3216 C.2       1 <0>         0.0537
      9 N1          8.3752    3.8681    0.9266 N.2       1 <0>        -0.4636
     10 C9          9.2741    4.8459    0.7987 C.2       1 <0>         0.2804
     11 N2          8.7521    5.8936    0.0797 N.pl3     1 <0>        -0.4978
     12 H1          9.2222    6.7458   -0.1498 H         1 <0>         0.4462
     13 C10        10.5856    4.8086    1.3304 C.ar      1 <0>        -0.1818
     14 C11        11.0268    3.6847    2.0552 C.ar      1 <0>         0.0428
     15 C12        12.2905    3.6565    2.5638 C.ar      1 <0>        -0.1163
     16 C13        13.1547    4.7309    2.3737 C.ar      1 <0>        -0.0080
     17 C14        12.7471    5.8448    1.6670 C.ar      1 <0>        -0.2315
     18 C15        11.4678    5.8986    1.1333 C.ar      1 <0>         0.3259
     19 N3         12.7486    2.4726    3.3247 N.pl3     1 <0>         0.0256
     20 O1         11.9359    1.4525    3.5077 O.2       1 <0>        -0.2379
     21 O2         13.9689    2.4391    3.8189 O.3       1 <0>        -0.2455
     22 C16         6.0246    3.3999    0.2355 C.ar      1 <0>         0.0492
     23 C17         6.1055    2.0024    0.1310 C.ar      1 <0>        -0.1064
     24 C18         4.9634    1.2577    0.0508 C.ar      1 <0>        -0.0831
     25 C19         3.7142    1.8862    0.0723 C.ar      1 <0>        -0.1694
     26 C20         3.6308    3.2788    0.1709 C.ar      1 <0>        -0.0615
     27 C21         4.7695    4.0281    0.2573 C.ar      1 <0>        -0.1131
     28 C22         2.4787    1.0768   -0.0158 C.2       1 <0>         0.4423
     29 O3          1.5043    1.5164   -0.5937 O.2       1 <0>        -0.4529
     30 C23         2.4298   -0.2653    0.5987 C.ar      1 <0>        -0.1615
     31 C24         1.3264   -1.0954    0.3849 C.ar      1 <0>        -0.0638
     32 C25         1.2849   -2.3452    0.9665 C.ar      1 <0>        -0.1351
     33 C26         2.3376   -2.7818    1.7519 C.ar      1 <0>        -0.0903
     34 C27         3.4338   -1.9649    1.9681 C.ar      1 <0>        -0.1319
     35 C28         3.4865   -0.7107    1.3971 C.ar      1 <0>        -0.0785
     36 H2          4.0633    8.4301   -3.0446 H         1 <0>         0.1194
     37 H3          5.3833    9.4925   -1.2586 H         1 <0>         0.1213
     38 H4          6.9756    8.1743    0.0466 H         1 <0>         0.1203
     39 H5          5.9188    4.6819   -2.2631 H         1 <0>         0.1241
     40 H6          4.3297    6.0330   -3.5384 H         1 <0>         0.1226
     41 H7         10.3639    2.8460    2.2081 H         1 <0>         0.1469
     42 H8         14.1535    4.6928    2.7827 H         1 <0>         0.1342
     43 H9         13.4262    6.6726    1.5257 H         1 <0>         0.1316
     44 H10         7.0699    1.5166    0.1137 H         1 <0>         0.1361
     45 H11         5.0251    0.1825   -0.0296 H         1 <0>         0.1341
     46 H12         2.6649    3.7619    0.1831 H         1 <0>         0.1288
     47 H13         4.7044    5.1031    0.3372 H         1 <0>         0.1296
     48 H14         0.5060   -0.7574   -0.2308 H         1 <0>         0.1323
     49 H15         0.4307   -2.9861    0.8057 H         1 <0>         0.1275
     50 H16         2.3017   -3.7631    2.2016 H         1 <0>         0.1262
     51 H17         4.2499   -2.3107    2.5851 H         1 <0>         0.1310
     52 H18         4.3423   -0.0742    1.5669 H         1 <0>         0.1439
     53 O4         11.0646    6.9856    0.4348 O.3       1 <0>        -0.6676
@<TRIPOS>BOND
     1    1    6 ar
     2    1    2 ar
     3    1   36 1
     4    2    3 ar
     5    2   37 1
     6    3    4 ar
     7    3   38 1
     8    4    5 ar
     9    4    7 1
    10    5    6 ar
    11    5   39 1
    12    6   40 1
    13    7   11 1
    14    7    8 2
    15    8    9 1
    16    8   22 1
    17    9   10 2
    18   10   11 1
    19   10   13 1
    20   11   12 1
    21   13   18 ar
    22   13   14 ar
    23   14   15 ar
    24   14   41 1
    25   15   16 ar
    26   15   19 1
    27   16   17 ar
    28   16   42 1
    29   17   18 ar
    30   17   43 1
    31   18   53 1
    32   19   20 2
    33   19   21 1
    34   22   27 ar
    35   22   23 ar
    36   23   24 ar
    37   23   44 1
    38   24   25 ar
    39   24   45 1
    40   25   26 ar
    41   25   28 1
    42   26   27 ar
    43   26   46 1
    44   27   47 1
    45   28   29 2
    46   28   30 1
    47   30   35 ar
    48   30   31 ar
    49   31   32 ar
    50   31   48 1
    51   32   33 ar
    52   32   49 1
    53   33   34 ar
    54   33   50 1
    55   34   35 ar
    56   34   51 1
    57   35   52 1
@<TRIPOS>MOLECULE
ZINC06147246
   50    53     0     0     0
SMALL
USER_CHARGES
N-[(4-phenylphenyl)methyleneamino]-4-(2-thienylsulfonylamino)benzamide
@<TRIPOS>ATOM
      1 C1          4.7771   14.5535   -0.4745 C.ar      1 <0>        -0.1210
      2 C2          3.5308   13.9574   -0.4033 C.ar      1 <0>        -0.1179
      3 C3          3.4215   12.5820   -0.3757 C.ar      1 <0>        -0.1102
      4 C4          4.5701   11.7932   -0.4197 C.ar      1 <0>        -0.0442
      5 C5          5.8235   12.3996   -0.4861 C.ar      1 <0>        -0.1110
      6 C6          5.9203   13.7759   -0.5179 C.ar      1 <0>        -0.1190
      7 C7          4.4592   10.3149   -0.3899 C.ar      1 <0>        -0.0399
      8 C8          5.6109    9.5287   -0.4340 C.ar      1 <0>        -0.1141
      9 C9          5.5098    8.1564   -0.4055 C.ar      1 <0>        -0.0918
     10 C10         4.2520    7.5502   -0.3326 C.ar      1 <0>        -0.0399
     11 C11         3.0984    8.3394   -0.2947 C.ar      1 <0>        -0.0794
     12 C12         3.2033    9.7116   -0.3171 C.ar      1 <0>        -0.1126
     13 C13         4.1419    6.0812   -0.3020 C.2       1 <0>         0.0790
     14 N1          2.9734    5.5190   -0.2343 N.2       1 <0>        -0.2103
     15 N2          2.8688    4.1222   -0.2051 N.am      1 <0>        -0.5917
     16 C14         1.6559    3.5387   -0.1349 C.2       1 <0>         0.5890
     17 O1          0.6522    4.2247   -0.0968 O.2       1 <0>        -0.5197
     18 C15         1.5457    2.0684   -0.1042 C.ar      1 <0>        -0.2018
     19 C16         0.2882    1.4615   -0.0313 C.ar      1 <0>        -0.0346
     20 C17         0.1888    0.0893   -0.0033 C.ar      1 <0>        -0.1729
     21 C18         1.3386   -0.6945   -0.0469 C.ar      1 <0>         0.2618
     22 C19         2.5922   -0.0933   -0.1194 C.ar      1 <0>        -0.1674
     23 C20         2.6985    1.2784   -0.1483 C.ar      1 <0>        -0.0691
     24 N3          1.2347   -2.0809   -0.0175 N.2       1 <0>        -1.0870
     25 S1          0.7374   -2.9028   -1.3664 S.o2      1 <0>         2.6210
     26 O2          0.7781   -4.2847   -1.0379 O.2       1 <0>        -0.9895
     27 O3         -0.4474   -2.2618   -1.8187 O.2       1 <0>        -1.0248
     28 C21         1.9564   -2.6452   -2.6123 C.2       1 <0>        -0.6923
     29 C22         3.0170   -3.4221   -2.9424 C.2       1 <0>        -0.0585
     30 C23         3.8509   -3.0175   -3.9679 C.2       1 <0>        -0.1782
     31 C24         3.5834   -1.8558   -4.6130 C.2       1 <0>        -0.1785
     32 S2          2.1107   -1.2972   -3.7726 S.3       1 <0>         0.1280
     33 H1          4.8579   15.6303   -0.4959 H         1 <0>         0.1215
     34 H2          2.6417   14.5695   -0.3689 H         1 <0>         0.1239
     35 H3          2.4480   12.1176   -0.3198 H         1 <0>         0.1270
     36 H4          6.7169   11.7935   -0.5159 H         1 <0>         0.1260
     37 H5          6.8907   14.2468   -0.5735 H         1 <0>         0.1233
     38 H6          6.5824    9.9973   -0.4903 H         1 <0>         0.1281
     39 H7          6.4016    7.5481   -0.4397 H         1 <0>         0.1303
     40 H8          2.1259    7.8727   -0.2433 H         1 <0>         0.1384
     41 H9          2.3127   10.3216   -0.2830 H         1 <0>         0.1280
     42 H10         5.0496    5.4608   -0.3365 H         1 <0>         0.1219
     43 H11         3.7765    3.5018   -0.2395 H         1 <0>         0.4037
     44 H12        -0.6043    2.0689   -0.0016 H         1 <0>         0.1225
     45 H13        -0.7822   -0.3801    0.0530 H         1 <0>         0.1252
     46 H14         3.4823   -0.7041   -0.1528 H         1 <0>         0.1175
     47 H15         3.6713    1.7442   -0.2042 H         1 <0>         0.1064
     48 H16         3.2074   -4.3436   -2.4124 H         1 <0>         0.1396
     49 H17         4.7026   -3.6181   -4.2511 H         1 <0>         0.1316
     50 H18         4.1198   -1.3908   -5.4270 H         1 <0>         0.1836
@<TRIPOS>BOND
     1    1    6 ar
     2    1    2 ar
     3    1   33 1
     4    2    3 ar
     5    2   34 1
     6    3    4 ar
     7    3   35 1
     8    4    5 ar
     9    4    7 1
    10    5    6 ar
    11    5   36 1
    12    6   37 1
    13    7   12 ar
    14    7    8 ar
    15    8    9 ar
    16    8   38 1
    17    9   10 ar
    18    9   39 1
    19   10   11 ar
    20   10   13 1
    21   11   12 ar
    22   11   40 1
    23   12   41 1
    24   13   14 2
    25   13   42 1
    26   14   15 1
    27   15   16 am
    28   15   43 1
    29   16   17 2
    30   16   18 1
    31   18   23 ar
    32   18   19 ar
    33   19   20 ar
    34   19   44 1
    35   20   21 ar
    36   20   45 1
    37   21   22 ar
    38   21   24 1
    39   22   23 ar
    40   22   46 1
    41   23   47 1
    42   24   25 1
    43   25   26 2
    44   25   27 2
    45   25   28 1
    46   28   32 1
    47   28   29 2
    48   29   30 1
    49   29   48 1
    50   30   31 2
    51   30   49 1
    52   31   32 1
    53   31   50 1
@<TRIPOS>MOLECULE
ZINC35704661
   59    62     0     0     0
SMALL
USER_CHARGES

@<TRIPOS>ATOM
      1 C1          0.7110    1.3144   -1.3339 C.3       1 <0>        -0.1086
      2 C2          0.6092   -0.1608   -1.0431 C.ar      1 <0>        -0.0909
      3 C3          0.6317   -1.0731   -2.0815 C.ar      1 <0>        -0.1246
      4 C4          0.5383   -2.4262   -1.8148 C.ar      1 <0>        -0.0709
      5 C5          0.4229   -2.8671   -0.5097 C.ar      1 <0>        -0.0738
      6 C6          0.4014   -1.9549    0.5287 C.ar      1 <0>        -0.0867
      7 C7          0.4991   -0.6019    0.2623 C.ar      1 <0>        -0.1226
      8 C8          0.3201   -4.3422   -0.2190 C.3       1 <0>         0.2604
      9 H1          0.6381   -4.8800   -1.1122 H         1 <0>         0.0720
     10 C9         -1.1362   -4.6679    0.0268 C.2       1 <0>        -0.3910
     11 C10        -1.4733   -5.2360    1.2404 C.2       1 <0>         0.3019
     12 N1         -0.5422   -5.4808    2.1478 N.2       1 <0>        -0.5969
     13 C11         0.7405   -5.2219    1.9971 C.2       1 <0>         0.3203
     14 N2          1.2779   -4.6615    0.8730 N.pl3     1 <0>        -0.5125
     15 C12         2.6425   -4.4515    0.8693 C.2       1 <0>         0.2311
     16 C13         3.3357   -4.8144    1.9711 C.2       1 <0>        -0.3045
     17 S1          2.0499   -5.4580    3.0202 S.3       1 <0>         0.1411
     18 C14         3.3176   -3.8546   -0.2921 C.2       1 <0>        -0.4595
     19 C15         4.6203   -3.5213   -0.2160 C.2       1 <0>         0.5021
     20 O1          5.3380   -3.8402    0.8886 O.3       1 <0>        -0.7023
     21 N3          5.2264   -2.8528   -1.2663 N.pl3     1 <0>        -0.7518
     22 C16         6.6672   -2.5894   -1.2329 C.3       1 <0>         0.2190
     23 C17         7.0521   -1.7503   -2.4240 C.2       1 <0>        -0.0155
     24 C18         7.0791   -0.4060   -2.4635 C.2       1 <0>        -0.1992
     25 C19         7.4939   -0.0427   -3.7654 C.2       1 <0>        -0.2160
     26 C20         7.6956   -1.1868   -4.4436 C.2       1 <0>        -0.0459
     27 O2          7.4320   -2.2179   -3.6243 O.3       1 <0>        -0.1734
     28 C21        -2.9115   -5.5787    1.5325 C.3       1 <0>        -0.1136
     29 C22        -2.1105   -4.4022   -0.9430 C.2       1 <0>         0.5381
     30 O3         -3.2805   -4.6582   -0.7175 O.2       1 <0>        -0.5498
     31 O4         -1.7535   -3.8618   -2.1291 O.3       1 <0>        -0.3462
     32 C23        -2.7994   -3.6173   -3.0717 C.3       1 <0>         0.0821
     33 C24        -2.4283   -2.4172   -3.9453 C.3       1 <0>        -0.1461
     34 C25        -2.9887   -4.8520   -3.9551 C.3       1 <0>        -0.1678
     35 H2          1.7595    1.6126   -1.3370 H         1 <0>         0.0657
     36 H3          0.2709    1.5238   -2.3088 H         1 <0>         0.0607
     37 H4          0.1765    1.8738   -0.5662 H         1 <0>         0.0601
     38 H5          0.7219   -0.7286   -3.1011 H         1 <0>         0.1136
     39 H6          0.5552   -3.1389   -2.6260 H         1 <0>         0.1180
     40 H7          0.3109   -2.2993    1.5483 H         1 <0>         0.1025
     41 H8          0.4860    0.1106    1.0738 H         1 <0>         0.1125
     42 H9          4.3952   -4.7351    2.1648 H         1 <0>         0.2372
     43 H10         2.7689   -3.6834   -1.2064 H         1 <0>         0.0876
     44 H11         4.6971   -2.5589   -2.0241 H         1 <0>         0.3884
     45 H12         6.9178   -2.0557   -0.3162 H         1 <0>         0.0881
     46 H13         7.2100   -3.5342   -1.2633 H         1 <0>         0.0648
     47 H14         6.8309    0.2667   -1.6559 H         1 <0>         0.1477
     48 H15         7.6235    0.9607   -4.1430 H         1 <0>         0.1458
     49 H16         8.0185   -1.2632   -5.4713 H         1 <0>         0.1997
     50 H17        -3.1437   -6.5583    1.1147 H         1 <0>         0.0792
     51 H18        -3.0687   -5.5972    2.6109 H         1 <0>         0.0637
     52 H19        -3.5622   -4.8286    1.0832 H         1 <0>         0.1104
     53 H20        -3.7265   -3.4060   -2.5389 H         1 <0>         0.0769
     54 H21        -1.5012   -2.6285   -4.4780 H         1 <0>         0.0633
     55 H22        -3.2261   -2.2307   -4.6642 H         1 <0>         0.0683
     56 H23        -2.2934   -1.5376   -3.3159 H         1 <0>         0.0625
     57 H24        -3.7865   -4.6655   -4.6740 H         1 <0>         0.0651
     58 H25        -2.0616   -5.0633   -4.4878 H         1 <0>         0.0608
     59 H26        -3.2531   -5.7070   -3.3327 H         1 <0>         0.0596
@<TRIPOS>BOND
     1    1    2 1
     2    1   35 1
     3    1   36 1
     4    1   37 1
     5    2    7 ar
     6    2    3 ar
     7    3    4 ar
     8    3   38 1
     9    4    5 ar
    10    4   39 1
    11    5    6 ar
    12    5    8 1
    13    6    7 ar
    14    6   40 1
    15    7   41 1
    16    8    9 1
    17    8   14 1
    18    8   10 1
    19   10   11 2
    20   10   29 1
    21   11   12 1
    22   11   28 1
    23   12   13 2
    24   13   17 1
    25   13   14 1
    26   14   15 1
    27   15   16 2
    28   15   18 1
    29   16   17 1
    30   16   42 1
    31   18   19 2
    32   18   43 1
    33   19   20 1
    34   19   21 1
    35   21   22 1
    36   21   44 1
    37   22   23 1
    38   22   45 1
    39   22   46 1
    40   23   27 1
    41   23   24 2
    42   24   25 1
    43   24   47 1
    44   25   26 2
    45   25   48 1
    46   26   27 1
    47   26   49 1
    48   28   50 1
    49   28   51 1
    50   28   52 1
    51   29   30 2
    52   29   31 1
    53   31   32 1
    54   32   33 1
    55   32   34 1
    56   32   53 1
    57   33   54 1
    58   33   55 1
    59   33   56 1
    60   34   57 1
    61   34   58 1
    62   34   59 1
@<TRIPOS>MOLECULE
ZINC36063325
   66    69     0     0     0
SMALL
USER_CHARGES

@<TRIPOS>ATOM
      1 C1          0.1782    0.8604    0.2803 C.3       1 <0>        -0.1253
      2 C2         -0.0321   -0.6510    0.3918 C.3       1 <0>        -0.0906
      3 C3         -1.5005   -0.9646    0.2633 C.2       1 <0>         0.3074
      4 C4         -2.0661   -1.1002   -0.9900 C.2       1 <0>        -0.3902
      5 C5         -3.5433   -1.4156   -1.0666 C.3       1 <0>         0.2597
      6 H1         -4.0258   -0.6252   -1.6415 H         1 <0>         0.0720
      7 N1         -4.2731   -1.5554    0.2217 N.pl3     1 <0>        -0.5121
      8 C6         -5.6136   -1.8393    0.3908 C.2       1 <0>         0.2322
      9 C7         -6.0818   -1.9241    1.6556 C.2       1 <0>        -0.3064
     10 S1         -4.6151   -1.6000    2.6140 S.3       1 <0>         0.1371
     11 C8         -3.5275   -1.3830    1.3543 C.2       1 <0>         0.3200
     12 N2         -2.2381   -1.1138    1.3515 N.2       1 <0>        -0.5956
     13 C9         -6.5003   -2.0416   -0.7640 C.2       1 <0>        -0.4628
     14 C10        -7.7635   -2.4697   -0.5764 C.2       1 <0>         0.5025
     15 O1         -8.2546   -2.6019    0.6799 O.3       1 <0>        -0.7062
     16 N3         -8.5603   -2.7746   -1.6669 N.pl3     1 <0>        -0.7495
     17 C11        -9.9671   -3.1325   -1.4690 C.3       1 <0>         0.1454
     18 C12       -10.5835   -3.5384   -2.8092 C.3       1 <0>         0.0690
     19 H2        -10.0454   -4.3875   -3.2307 H         1 <0>         0.0718
     20 C13       -12.0822   -3.8878   -2.6280 C.3       1 <0>        -0.1482
     21 C14       -12.6215   -3.6245   -4.0604 C.3       1 <0>        -0.1552
     22 C15       -11.7511   -2.4371   -4.5251 C.3       1 <0>         0.0500
     23 O2        -10.5623   -2.4309   -3.7236 O.3       1 <0>        -0.3738
     24 C16        -3.7035   -2.7039   -1.8319 C.ar      1 <0>        -0.0717
     25 C17        -3.4530   -3.9128   -1.2102 C.ar      1 <0>        -0.0878
     26 C18        -3.5999   -5.0946   -1.9122 C.ar      1 <0>        -0.1202
     27 C19        -3.9979   -5.0673   -3.2358 C.ar      1 <0>        -0.0798
     28 C20        -4.2493   -3.8584   -3.8572 C.ar      1 <0>        -0.1182
     29 C21        -4.1065   -2.6769   -3.1539 C.ar      1 <0>        -0.0758
     30 C22        -4.1571   -6.3556   -4.0014 C.3       1 <0>        -0.0534
     31 C23        -5.6018   -6.4842   -4.4884 C.3       1 <0>        -0.1418
     32 C24        -3.2117   -6.3541   -5.2043 C.3       1 <0>        -0.1412
     33 C25        -1.2974   -0.9500   -2.1506 C.2       1 <0>         0.5373
     34 O3         -0.0946   -0.7728   -2.0661 O.2       1 <0>        -0.5463
     35 O4         -1.8893   -1.0016   -3.3644 O.3       1 <0>        -0.3559
     36 C26        -1.0443   -0.8406   -4.5055 C.3       1 <0>         0.0418
     37 H3          1.2403    1.0873    0.3732 H         1 <0>         0.0561
     38 H4         -0.1841    1.2073   -0.6874 H         1 <0>         0.0541
     39 H5         -0.3717    1.3634    1.0758 H         1 <0>         0.0478
     40 H6          0.5178   -1.1540   -0.4037 H         1 <0>         0.1183
     41 H7          0.3303   -0.9979    1.3595 H         1 <0>         0.0686
     42 H8         -7.0848   -2.1334    1.9970 H         1 <0>         0.2365
     43 H9         -6.1389   -1.8469   -1.7629 H         1 <0>         0.0873
     44 H10        -8.1871   -2.7513   -2.5619 H         1 <0>         0.3889
     45 H11       -10.0350   -3.9664   -0.7703 H         1 <0>         0.0665
     46 H12       -10.5067   -2.2757   -1.0655 H         1 <0>         0.0518
     47 H13       -12.2107   -4.9328   -2.3458 H         1 <0>         0.0837
     48 H14       -12.5549   -3.2259   -1.9024 H         1 <0>         0.0821
     49 H15       -12.4653   -4.4935   -4.6996 H         1 <0>         0.0745
     50 H16       -13.6750   -3.3460   -4.0332 H         1 <0>         0.0799
     51 H17       -11.4867   -2.5610   -5.5752 H         1 <0>         0.0642
     52 H18       -12.2959   -1.5031   -4.3875 H         1 <0>         0.0663
     53 H19        -3.1421   -3.9341   -0.1762 H         1 <0>         0.1024
     54 H20        -3.4035   -6.0391   -1.4267 H         1 <0>         0.1118
     55 H21        -4.5598   -3.8371   -4.8914 H         1 <0>         0.1138
     56 H22        -4.3065   -1.7326   -3.6384 H         1 <0>         0.1179
     57 H23        -3.9166   -7.1967   -3.3512 H         1 <0>         0.0716
     58 H24        -5.8423   -5.6430   -5.1385 H         1 <0>         0.0560
     59 H25        -5.7170   -7.4159   -5.0421 H         1 <0>         0.0519
     60 H26        -6.2754   -6.4852   -3.6314 H         1 <0>         0.0568
     61 H27        -3.4522   -5.5130   -5.8545 H         1 <0>         0.0558
     62 H28        -2.1824   -6.2625   -4.8574 H         1 <0>         0.0536
     63 H29        -3.3269   -7.2859   -5.7581 H         1 <0>         0.0527
     64 H30        -1.6442   -0.9027   -5.4135 H         1 <0>         0.0888
     65 H31        -0.5536    0.1316   -4.4600 H         1 <0>         0.0509
     66 H32        -0.2906   -1.6280   -4.5135 H         1 <0>         0.0510
@<TRIPOS>BOND
     1    1    2 1
     2    1   37 1
     3    1   38 1
     4    1   39 1
     5    2    3 1
     6    2   40 1
     7    2   41 1
     8    3   12 1
     9    3    4 2
    10    4    5 1
    11    4   33 1
    12    5    6 1
    13    5    7 1
    14    5   24 1
    15    7   11 1
    16    7    8 1
    17    8    9 2
    18    8   13 1
    19    9   10 1
    20    9   42 1
    21   10   11 1
    22   11   12 2
    23   13   14 2
    24   13   43 1
    25   14   15 1
    26   14   16 1
    27   16   17 1
    28   16   44 1
    29   17   18 1
    30   17   45 1
    31   17   46 1
    32   18   19 1
    33   18   23 1
    34   18   20 1
    35   20   21 1
    36   20   47 1
    37   20   48 1
    38   21   22 1
    39   21   49 1
    40   21   50 1
    41   22   23 1
    42   22   51 1
    43   22   52 1
    44   24   29 ar
    45   24   25 ar
    46   25   26 ar
    47   25   53 1
    48   26   27 ar
    49   26   54 1
    50   27   28 ar
    51   27   30 1
    52   28   29 ar
    53   28   55 1
    54   29   56 1
    55   30   31 1
    56   30   32 1
    57   30   57 1
    58   31   58 1
    59   31   59 1
    60   31   60 1
    61   32   61 1
    62   32   62 1
    63   32   63 1
    64   33   34 2
    65   33   35 1
    66   35   36 1
    67   36   64 1
    68   36   65 1
    69   36   66 1
@<TRIPOS>MOLECULE
ZINC20755394
   43    45     0     0     0
SMALL
USER_CHARGES

@<TRIPOS>ATOM
      1 C1         -0.0166    1.3749    0.0096 C.ar      1 <0>        -0.1346
      2 C2          1.1698    2.0876    0.0021 C.ar      1 <0>        -0.0791
      3 C3          2.3833    1.4241   -0.0135 C.ar      1 <0>        -0.1615
      4 C4          2.4187    0.0427   -0.0218 C.ar      1 <0>         0.1336
      5 C5          1.2228   -0.6831   -0.0138 C.ar      1 <0>        -0.0790
      6 C6          0.0021   -0.0041    0.0020 C.ar      1 <0>        -0.0617
      7 C7          1.2507   -2.1571   -0.0225 C.2       1 <0>         0.0985
      8 N1          2.3871   -2.7848   -0.0376 N.2       1 <0>        -0.2250
      9 N2          2.4135   -4.1855   -0.0458 N.pl3     1 <0>        -0.5527
     10 C8          3.6347   -4.8601   -0.0621 C.ar      1 <0>         0.3634
     11 C9          4.8263   -4.1441   -0.0643 C.ar      1 <0>        -0.1792
     12 C10         6.0327   -4.8150   -0.0799 C.ar      1 <0>         0.0133
     13 C11         6.0568   -6.1980   -0.0938 C.ar      1 <0>        -0.1240
     14 C12         4.8736   -6.9137   -0.0916 C.ar      1 <0>         0.0814
     15 C13         3.6630   -6.2495   -0.0703 C.ar      1 <0>        -0.6872
     16 S1          2.1560   -7.1625   -0.0602 S.o2      1 <0>         2.5991
     17 O1          1.3341   -6.6009   -1.0742 O.2       1 <0>        -1.0280
     18 O2          2.5143   -8.5375   -0.0446 O.2       1 <0>        -1.0130
     19 N3          1.4054   -6.8526    1.3831 N.2       1 <0>        -1.0729
     20 C14         0.1749   -7.4484    1.6728 C.ar      1 <0>         0.2824
     21 C15        -0.4171   -8.3052    0.7540 C.ar      1 <0>        -0.2535
     22 C16        -1.6330   -8.8928    1.0436 C.ar      1 <0>        -0.0625
     23 C17        -2.2617   -8.6289    2.2467 C.ar      1 <0>        -0.2111
     24 C18        -1.6758   -7.7765    3.1643 C.ar      1 <0>        -0.0709
     25 C19        -0.4564   -7.1894    2.8836 C.ar      1 <0>        -0.0906
     26 Cl1         0.2821   -6.1245    4.0388 Cl        1 <0>        -0.0894
     27 N4          7.3526   -6.9138   -0.1114 N.pl3     1 <0>         0.0498
     28 O3          8.3880   -6.2896   -0.1137 O.2       1 <0>        -0.1775
     29 O4          7.3755   -8.1225   -0.1236 O.3       1 <0>        -0.1711
     30 F1          3.6043   -0.6048   -0.0379 F         1 <0>        -0.1178
     31 H1         -0.9600    1.9004    0.0260 H         1 <0>         0.1342
     32 H2          1.1480    3.1673    0.0081 H         1 <0>         0.1337
     33 H3          3.3051    1.9868   -0.0197 H         1 <0>         0.1379
     34 H4         -0.9251   -0.5578    0.0083 H         1 <0>         0.1406
     35 H5          0.3258   -2.7147   -0.0163 H         1 <0>         0.1336
     36 H6          1.5828   -4.6864   -0.0403 H         1 <0>         0.4120
     37 H7          4.8082   -3.0643   -0.0541 H         1 <0>         0.1610
     38 H8          6.9589   -4.2594   -0.0816 H         1 <0>         0.1562
     39 H9          4.8963   -7.9934   -0.1029 H         1 <0>         0.1687
     40 H10         0.0727   -8.5115   -0.1862 H         1 <0>         0.1046
     41 H11        -2.0936   -9.5591    0.3293 H         1 <0>         0.1097
     42 H12        -3.2128   -9.0894    2.4700 H         1 <0>         0.1124
     43 H13        -2.1696   -7.5722    4.1029 H         1 <0>         0.1163
@<TRIPOS>BOND
     1    1    6 ar
     2    1    2 ar
     3    1   31 1
     4    2    3 ar
     5    2   32 1
     6    3    4 ar
     7    3   33 1
     8    4    5 ar
     9    4   30 1
    10    5    6 ar
    11    5    7 1
    12    6   34 1
    13    7    8 2
    14    7   35 1
    15    8    9 1
    16    9   10 1
    17    9   36 1
    18   10   15 ar
    19   10   11 ar
    20   11   12 ar
    21   11   37 1
    22   12   13 ar
    23   12   38 1
    24   13   14 ar
    25   13   27 1
    26   14   15 ar
    27   14   39 1
    28   15   16 1
    29   16   17 2
    30   16   18 2
    31   16   19 1
    32   19   20 1
    33   20   25 ar
    34   20   21 ar
    35   21   22 ar
    36   21   40 1
    37   22   23 ar
    38   22   41 1
    39   23   24 ar
    40   23   42 1
    41   24   25 ar
    42   24   43 1
    43   25   26 1
    44   27   28 2
    45   27   29 1
@<TRIPOS>MOLECULE
ZINC02244825
   52    56     0     0     0
SMALL
USER_CHARGES

@<TRIPOS>ATOM
      1 C1          0.5406    0.4364   -0.3885 C.3       1 <0>        -0.1430
      2 C2          0.2198   -0.8106    0.4379 C.3       1 <0>        -0.0505
      3 C3          0.5849   -0.5598    1.9024 C.3       1 <0>        -0.1426
      4 C4         -1.2518   -1.1181    0.3326 C.ar      1 <0>        -0.1138
      5 C5         -2.1831   -0.1850    0.7502 C.ar      1 <0>        -0.0942
      6 C6         -3.5324   -0.4636    0.6555 C.ar      1 <0>        -0.1585
      7 C7         -3.9537   -1.6828    0.1397 C.ar      1 <0>         0.1799
      8 C8         -3.0154   -2.6177   -0.2792 C.ar      1 <0>        -0.1157
      9 C9         -1.6678   -2.3304   -0.1865 C.ar      1 <0>        -0.0966
     10 N1         -5.3182   -1.9682    0.0430 N.pl3     1 <0>        -0.6371
     11 C10        -5.8019   -2.6838   -1.0429 C.ar      1 <0>         0.3728
     12 C11        -7.1618   -3.0761   -1.0775 C.ar      1 <0>         0.4205
     13 N2         -8.0022   -2.7424   -0.0262 N.2       1 <0>        -1.0604
     14 S1         -9.5938   -3.1987   -0.0616 S.o2      1 <0>         2.6424
     15 O1        -10.1972   -2.4849   -1.1319 O.2       1 <0>        -1.0102
     16 O2         -9.6112   -4.6176    0.0134 O.2       1 <0>        -0.9929
     17 C12       -10.3385   -2.6069    1.4216 C.ar      1 <0>        -0.5820
     18 C13       -11.3119   -1.6682    1.3608 C.ar      1 <0>         0.0104
     19 C14       -11.9238   -1.1771    2.5141 C.ar      1 <0>        -0.1119
     20 C15       -11.5706   -1.6174    3.7444 C.ar      1 <0>        -0.0337
     21 C16       -10.5558   -2.6023    3.8853 C.ar      1 <0>         0.0550
     22 C17        -9.9201   -3.1201    2.6791 C.ar      1 <0>         0.1318
     23 N3         -8.9890   -4.0411    2.9312 N.2       1 <0>        -0.4657
     24 S2         -8.9623   -4.2051    4.5314 S.3       1 <0>         0.6172
     25 N4        -10.0810   -3.1501    5.0048 N.2       1 <0>        -0.5071
     26 N5         -7.6335   -3.7554   -2.1021 N.ar      1 <0>        -0.5691
     27 C18        -6.8206   -4.0777   -3.1192 C.ar      1 <0>         0.1201
     28 C19        -7.3000   -4.8010   -4.2229 C.ar      1 <0>        -0.1047
     29 C20        -6.4549   -5.1161   -5.2438 C.ar      1 <0>        -0.1150
     30 C21        -5.1174   -4.7308   -5.2095 C.ar      1 <0>        -0.1488
     31 C22        -4.6186   -4.0287   -4.1541 C.ar      1 <0>        -0.0726
     32 C23        -5.4611   -3.6857   -3.0845 C.ar      1 <0>         0.0405
     33 N6         -4.9946   -2.9893   -2.0374 N.ar      1 <0>        -0.4927
     34 H1          1.6050    0.6588   -0.3123 H         1 <0>         0.0519
     35 H2          0.2805    0.2577   -1.4318 H         1 <0>         0.0556
     36 H3         -0.0350    1.2811   -0.0100 H         1 <0>         0.0549
     37 H4          0.7954   -1.6553    0.0595 H         1 <0>         0.0725
     38 H5          0.0092    0.2849    2.2808 H         1 <0>         0.0549
     39 H6          0.3563   -1.4482    2.4911 H         1 <0>         0.0546
     40 H7          1.6492   -0.3374    1.9785 H         1 <0>         0.0521
     41 H8         -1.8549    0.7626    1.1511 H         1 <0>         0.1159
     42 H9         -4.2592    0.2653    0.9825 H         1 <0>         0.1193
     43 H10        -3.3396   -3.5666   -0.6803 H         1 <0>         0.1296
     44 H11        -0.9379   -3.0552   -0.5158 H         1 <0>         0.1160
     45 H12        -5.9271   -1.6661    0.7349 H         1 <0>         0.4287
     46 H13       -11.6216   -1.2907    0.3975 H         1 <0>         0.1565
     47 H14       -12.6968   -0.4283    2.4234 H         1 <0>         0.1464
     48 H15       -12.0606   -1.2192    4.6206 H         1 <0>         0.1446
     49 H16        -8.3351   -5.1068   -4.2623 H         1 <0>         0.1230
     50 H17        -6.8273   -5.6725   -6.0912 H         1 <0>         0.1162
     51 H18        -4.4664   -4.9926   -6.0305 H         1 <0>         0.1155
     52 H19        -3.5788   -3.7369   -4.1402 H         1 <0>         0.1201
@<TRIPOS>BOND
     1    1    2 1
     2    1   34 1
     3    1   35 1
     4    1   36 1
     5    2    3 1
     6    2    4 1
     7    2   37 1
     8    3   38 1
     9    3   39 1
    10    3   40 1
    11    4    9 ar
    12    4    5 ar
    13    5    6 ar
    14    5   41 1
    15    6    7 ar
    16    6   42 1
    17    7    8 ar
    18    7   10 1
    19    8    9 ar
    20    8   43 1
    21    9   44 1
    22   10   11 1
    23   10   45 1
    24   11   33 ar
    25   11   12 ar
    26   12   13 1
    27   12   26 ar
    28   13   14 1
    29   14   15 2
    30   14   16 2
    31   14   17 1
    32   17   22 ar
    33   17   18 ar
    34   18   19 ar
    35   18   46 1
    36   19   20 ar
    37   19   47 1
    38   20   21 ar
    39   20   48 1
    40   21   25 2
    41   21   22 ar
    42   22   23 2
    43   23   24 1
    44   24   25 1
    45   26   27 ar
    46   27   32 ar
    47   27   28 ar
    48   28   29 ar
    49   28   49 1
    50   29   30 ar
    51   29   50 1
    52   30   31 ar
    53   30   51 1
    54   31   32 ar
    55   31   52 1
    56   32   33 ar
@<TRIPOS>MOLECULE
ZINC13398605
   73    76     0     0     0
SMALL
USER_CHARGES
(2R)-2-[(5S,8S,9S,10S,13S,14S,17R)-17-hydroxy-10,13-dimethyl-4,5,6,7,8,9,11,12,14,15,16,17-dodecahydro-1H-cyclopenta[a]phenanthren-3-yl]-6-methyl-heptanoic acid
@<TRIPOS>ATOM
      1 C1         -3.8006   12.2541    8.4827 C.3       1 <0>        -0.1458
      2 C2         -2.2715   12.2751    8.5303 C.3       1 <0>        -0.0986
      3 C3         -1.8057   12.2168    9.9865 C.3       1 <0>        -0.1445
      4 C4         -1.7210   11.0668    7.7700 C.3       1 <0>        -0.1101
      5 C5         -2.0816   11.1892    6.2881 C.3       1 <0>        -0.1345
      6 C6         -1.5312    9.9810    5.5278 C.3       1 <0>        -0.0819
      7 C7         -1.8918   10.1033    4.0460 C.3       1 <0>        -0.1081
      8 H1         -2.9699   10.2270    3.9434 H         1 <0>         0.0676
      9 C8         -1.4579    8.8571    3.3190 C.2       1 <0>        -0.0468
     10 C9         -2.3636    8.1572    2.7177 C.2       1 <0>        -0.2049
     11 C10        -2.0866    6.8907    1.9723 C.3       1 <0>        -0.0660
     12 C11        -0.5940    6.7733    1.6132 C.3       1 <0>        -0.0372
     13 C12         0.2229    7.0564    2.8774 C.3       1 <0>        -0.0670
     14 H2         -0.0898    6.3756    3.6763 H         1 <0>         0.0631
     15 C13        -0.0049    8.5009    3.3356 C.3       1 <0>        -0.0817
     16 C14         1.7203    6.8832    2.6141 C.3       1 <0>        -0.1169
     17 C15         1.9959    5.5389    1.9318 C.3       1 <0>        -0.1091
     18 C16         0.7423    4.6815    1.9970 C.3       1 <0>        -0.0635
     19 H3          0.3941    4.6743    3.0543 H         1 <0>         0.0658
     20 C17        -0.3670    5.3334    1.1573 C.3       1 <0>        -0.0679
     21 H4         -1.2960    4.7772    1.3666 H         1 <0>         0.0578
     22 C18        -0.0920    5.2065   -0.3305 C.3       1 <0>        -0.1075
     23 C19         0.0259    3.7227   -0.7346 C.3       1 <0>        -0.0985
     24 C20         1.1566    3.0958    0.0448 C.3       1 <0>        -0.0466
     25 C21         0.9059    3.2613    1.5558 C.3       1 <0>        -0.0725
     26 H5         -0.0474    2.7256    1.7994 H         1 <0>         0.0696
     27 C22         2.0386    2.4211    2.1559 C.3       1 <0>        -0.1143
     28 C23         2.0490    1.1690    1.2315 C.3       1 <0>        -0.1554
     29 C24         1.2664    1.5610   -0.0490 C.3       1 <0>         0.1015
     30 H6          1.8198    1.2845   -0.9395 H         1 <0>         0.0558
     31 O1         -0.0333    0.9766   -0.0412 O.3       1 <0>        -0.5566
     32 C25         2.5001    3.6613   -0.4110 C.3       1 <0>        -0.1475
     33 C26        -0.2582    7.7738    0.5110 C.3       1 <0>        -0.1396
     34 C27        -1.1904   11.2993    3.4554 C.2       1 <0>         0.4729
     35 O2         -0.4175   11.1543    2.5381 O.co2     1 <0>        -0.6329
     36 H7         -4.1928   13.1149    9.0244 H         1 <0>         0.0461
     37 H8         -4.1325   12.2957    7.4453 H         1 <0>         0.0615
     38 H9         -4.1660   11.3369    8.9447 H         1 <0>         0.0476
     39 H10        -1.9062   13.1923    8.0684 H         1 <0>         0.0716
     40 H11        -0.7163   12.2317   10.0203 H         1 <0>         0.0509
     41 H12        -2.1978   13.0776   10.5281 H         1 <0>         0.0483
     42 H13        -2.1710   11.2996   10.4484 H         1 <0>         0.0490
     43 H14        -2.1560   10.1534    8.1755 H         1 <0>         0.0476
     44 H15        -0.6370   11.0324    7.8785 H         1 <0>         0.0533
     45 H16        -1.6467   12.1027    5.8826 H         1 <0>         0.1117
     46 H17        -3.1657   11.2237    6.1796 H         1 <0>         0.0494
     47 H18        -1.9661    9.0675    5.9334 H         1 <0>         0.0417
     48 H19        -0.4471    9.9465    5.6363 H         1 <0>         0.0509
     49 H20        -3.3857    8.5075    2.7634 H         1 <0>         0.0905
     50 H21        -2.6729    6.8718    1.0541 H         1 <0>         0.0588
     51 H22        -2.3653    6.0384    2.5935 H         1 <0>         0.0578
     52 H23         0.3709    8.6057    4.3596 H         1 <0>         0.0555
     53 H24         0.5516    9.1862    2.6983 H         1 <0>         0.1002
     54 H25         2.0863    7.6898    1.9826 H         1 <0>         0.0644
     55 H26         2.2563    6.9068    3.5663 H         1 <0>         0.0531
     56 H27         2.2669    5.7577    0.8988 H         1 <0>         0.0645
     57 H28         2.8226    5.0441    2.4373 H         1 <0>         0.0558
     58 H29         0.8262    5.7187   -0.5995 H         1 <0>         0.0655
     59 H30        -0.9256    5.6357   -0.8941 H         1 <0>         0.0594
     60 H31         0.2291    3.6567   -1.8059 H         1 <0>         0.0547
     61 H32        -0.9142    3.2143   -0.5137 H         1 <0>         0.0686
     62 H33         2.9905    2.9406    2.1279 H         1 <0>         0.0706
     63 H34         1.7941    2.1294    3.1802 H         1 <0>         0.0606
     64 H35         1.5503    0.3365    1.7294 H         1 <0>         0.0668
     65 H36         3.0721    0.8972    0.9812 H         1 <0>         0.0658
     66 H37        -0.0302    0.0102   -0.0754 H         1 <0>         0.3716
     67 H38         2.7549    3.2502   -1.3878 H         1 <0>         0.0505
     68 H39         2.4327    4.7471   -0.4801 H         1 <0>         0.0699
     69 H40         3.2717    3.3903    0.3097 H         1 <0>         0.0590
     70 H41        -0.8907    7.5848   -0.3563 H         1 <0>         0.0466
     71 H42        -0.4326    8.7866    0.8742 H         1 <0>         0.0752
     72 H43         0.7887    7.6647    0.2278 H         1 <0>         0.0487
     73 O3         -1.4244   12.5256    3.9484 O.co2     1 <0>        -0.7619
@<TRIPOS>BOND
     1    1    2 1
     2    1   36 1
     3    1   37 1
     4    1   38 1
     5    2    3 1
     6    2    4 1
     7    2   39 1
     8    3   40 1
     9    3   41 1
    10    3   42 1
    11    4    5 1
    12    4   43 1
    13    4   44 1
    14    5    6 1
    15    5   45 1
    16    5   46 1
    17    6    7 1
    18    6   47 1
    19    6   48 1
    20    7    8 1
    21    7    9 1
    22    7   34 1
    23    9   15 1
    24    9   10 2
    25   10   11 1
    26   10   49 1
    27   11   12 1
    28   11   50 1
    29   11   51 1
    30   12   20 1
    31   12   13 1
    32   12   33 1
    33   13   14 1
    34   13   15 1
    35   13   16 1
    36   15   52 1
    37   15   53 1
    38   16   17 1
    39   16   54 1
    40   16   55 1
    41   17   18 1
    42   17   56 1
    43   17   57 1
    44   18   19 1
    45   18   25 1
    46   18   20 1
    47   20   21 1
    48   20   22 1
    49   22   23 1
    50   22   58 1
    51   22   59 1
    52   23   24 1
    53   23   60 1
    54   23   61 1
    55   24   29 1
    56   24   25 1
    57   24   32 1
    58   25   26 1
    59   25   27 1
    60   27   28 1
    61   27   62 1
    62   27   63 1
    63   28   29 1
    64   28   64 1
    65   28   65 1
    66   29   30 1
    67   29   31 1
    68   31   66 1
    69   32   67 1
    70   32   68 1
    71   32   69 1
    72   33   70 1
    73   33   71 1
    74   33   72 1
    75   34   35 2
    76   34   73 1
@<TRIPOS>MOLECULE
ZINC33513796
   53    57     0     0     0
SMALL
USER_CHARGES
N-[(R)-(1-hydroxy-2-phenyl-indol-3-yl)-(p-tolyl)methyl]pyridin-2-amine
@<TRIPOS>ATOM
      1 C1         -1.6382    4.8444    5.1937 C.3       1 <0>        -0.1121
      2 C2         -1.4102    5.1606    3.7380 C.ar      1 <0>        -0.0960
      3 C3         -1.7910    6.3884    3.2295 C.ar      1 <0>        -0.1213
      4 C4         -1.5814    6.6786    1.8943 C.ar      1 <0>        -0.1172
      5 C5         -0.9914    5.7409    1.0675 C.ar      1 <0>        -0.0786
      6 C6         -0.6158    4.5111    1.5747 C.ar      1 <0>        -0.0889
      7 C7         -0.8206    4.2228    2.9111 C.ar      1 <0>        -0.1228
      8 C8         -0.7633    6.0572   -0.3881 C.3       1 <0>         0.2902
      9 H1         -0.8305    7.1422   -0.5565 H         1 <0>         0.0827
     10 C9         -1.7876    5.3356   -1.2255 C.2       1 <0>        -0.2324
     11 C10        -1.7774    3.9179   -1.5822 C.ar      1 <0>        -0.1042
     12 C11        -0.9195    2.8528   -1.2923 C.ar      1 <0>        -0.0916
     13 C12        -1.1950    1.6076   -1.7815 C.ar      1 <0>        -0.1573
     14 C13        -2.3239    1.3893   -2.5596 C.ar      1 <0>        -0.1390
     15 C14        -3.1865    2.4229   -2.8527 C.ar      1 <0>        -0.0916
     16 C15        -2.9267    3.6998   -2.3656 C.ar      1 <0>         0.0712
     17 N1         -3.5811    4.9062   -2.4824 N.pl3     1 <0>        -0.2242
     18 C16        -2.8911    5.8788   -1.7964 C.2       1 <0>         0.1171
     19 C17        -3.2911    7.2992   -1.6975 C.ar      1 <0>         0.0050
     20 C18        -3.4718    7.8908   -0.4466 C.ar      1 <0>        -0.1141
     21 C19        -3.8389    9.2180   -0.3612 C.ar      1 <0>        -0.1281
     22 C20        -4.0399    9.9587   -1.5123 C.ar      1 <0>        -0.1273
     23 C21        -3.8680    9.3766   -2.7556 C.ar      1 <0>        -0.1253
     24 C22        -3.4950    8.0520   -2.8547 C.ar      1 <0>        -0.0806
     25 O1         -4.7839    5.1139   -3.2002 O.3       1 <0>        -0.6317
     26 N2          0.5803    5.6220   -0.7777 N.pl3     1 <0>        -0.7172
     27 C23         1.6784    6.4298   -0.5066 C.ar      1 <0>         0.4179
     28 C24         1.4856    7.6949    0.0397 C.ar      1 <0>        -0.2421
     29 C25         2.5875    8.4862    0.3089 C.ar      1 <0>        -0.0342
     30 C26         3.8495    7.9883    0.0122 C.ar      1 <0>        -0.2530
     31 C27         3.9675    6.7240   -0.5289 C.ar      1 <0>         0.1475
     32 N3          2.8985    5.9888   -0.7708 N.ar      1 <0>        -0.5511
     33 H2         -2.1139    5.7055    5.6858 H         1 <0>         0.0613
     34 H3         -0.6738    4.6319    5.6782 H         1 <0>         0.0644
     35 H4         -2.2934    3.9650    5.2796 H         1 <0>         0.0658
     36 H5         -2.2519    7.1209    3.8755 H         1 <0>         0.1170
     37 H6         -1.8789    7.6378    1.4971 H         1 <0>         0.1226
     38 H7         -0.1588    3.7769    0.9278 H         1 <0>         0.1219
     39 H8         -0.5234    3.2635    3.3083 H         1 <0>         0.1156
     40 H9         -0.0396    3.0149   -0.6874 H         1 <0>         0.1055
     41 H10        -0.5290    0.7863   -1.5615 H         1 <0>         0.1070
     42 H11        -2.5279    0.3991   -2.9394 H         1 <0>         0.1093
     43 H12        -4.0617    2.2423   -3.4592 H         1 <0>         0.1104
     44 H13        -3.3199    7.3124    0.4527 H         1 <0>         0.1272
     45 H14        -3.9744    9.6784    0.6063 H         1 <0>         0.1186
     46 H15        -4.3320   10.9960   -1.4401 H         1 <0>         0.1158
     47 H16        -4.0258    9.9603   -3.6504 H         1 <0>         0.1179
     48 H17        -3.3608    7.5988   -3.8258 H         1 <0>         0.1210
     49 H18         0.7201    4.6559   -1.2848 H         1 <0>         0.4255
     50 H19         0.4894    8.0523    0.2546 H         1 <0>         0.1277
     51 H20         2.4689    9.4708    0.7366 H         1 <0>         0.1250
     52 H21         4.7301    8.5825    0.2070 H         1 <0>         0.1230
     53 H22         4.9473    6.3312   -0.7570 H         1 <0>         0.1478
@<TRIPOS>BOND
     1    1    2 1
     2    1   33 1
     3    1   34 1
     4    1   35 1
     5    2    7 ar
     6    2    3 ar
     7    3    4 ar
     8    3   36 1
     9    4    5 ar
    10    4   37 1
    11    5    6 ar
    12    5    8 1
    13    6    7 ar
    14    6   38 1
    15    7   39 1
    16    8    9 1
    17    8   10 1
    18    8   26 1
    19   10   18 2
    20   10   11 1
    21   11   16 ar
    22   11   12 ar
    23   12   13 ar
    24   12   40 1
    25   13   14 ar
    26   13   41 1
    27   14   15 ar
    28   14   42 1
    29   15   16 ar
    30   15   43 1
    31   16   17 1
    32   17   18 1
    33   17   25 1
    34   18   19 1
    35   19   24 ar
    36   19   20 ar
    37   20   21 ar
    38   20   44 1
    39   21   22 ar
    40   21   45 1
    41   22   23 ar
    42   22   46 1
    43   23   24 ar
    44   23   47 1
    45   24   48 1
    46   26   27 1
    47   26   49 1
    48   27   32 ar
    49   27   28 ar
    50   28   29 ar
    51   28   50 1
    52   29   30 ar
    53   29   51 1
    54   30   31 ar
    55   30   52 1
    56   31   32 ar
    57   31   53 1
@<TRIPOS>MOLECULE
ZINC39894911
   45    47     0     0     0
SMALL
USER_CHARGES

@<TRIPOS>ATOM
      1 C1          0.0236    1.5810    0.0106 C.3       1 <0>        -0.1103
      2 C2          0.0319    0.0741    0.0000 C.2       1 <0>         0.1931
      3 C3         -1.1473   -0.6137   -0.0002 C.2       1 <0>        -0.2982
      4 C4         -1.1147   -2.0192   -0.0107 C.2       1 <0>         0.5294
      5 O1         -2.1498   -2.6650   -0.0116 O.2       1 <0>        -0.5328
      6 N1          0.0840   -2.6406   -0.0201 N.am      1 <0>        -0.6155
      7 H1          0.1300   -3.6095   -0.0278 H         1 <0>         0.4211
      8 C5          1.2282   -1.9021   -0.0194 C.2       1 <0>         0.3707
      9 N2          1.1885   -0.5835   -0.0146 N.2       1 <0>        -0.5435
     10 S1          2.7880   -2.7215   -0.0312 S.3       1 <0>         0.0039
     11 C6          3.9952   -1.3675   -0.0263 C.3       1 <0>        -0.0601
     12 C7          5.3900   -1.9380   -0.0357 C.ar      1 <0>        -0.0555
     13 C8          6.0299   -2.2124    1.1599 C.ar      1 <0>        -0.1015
     14 C9          7.3069   -2.7343    1.1584 C.ar      1 <0>        -0.0510
     15 C10         7.9532   -2.9859   -0.0530 C.ar      1 <0>        -0.1276
     16 C11         7.3017   -2.7072   -1.2556 C.ar      1 <0>        -0.0829
     17 C12         6.0228   -2.1903   -1.2400 C.ar      1 <0>        -0.1012
     18 C13         9.3217   -3.5446   -0.0622 C.2       1 <0>         0.5628
     19 O2          9.8868   -3.7860    0.9867 O.2       1 <0>        -0.5035
     20 N3          9.9430   -3.7864   -1.2335 N.am      1 <0>        -0.6638
     21 C14        11.2778   -4.2051   -1.2439 C.ar      1 <0>         0.1617
     22 C15        12.1129   -3.8947   -0.1787 C.ar      1 <0>        -0.0734
     23 C16        13.4302   -4.3094   -0.1919 C.ar      1 <0>        -0.1560
     24 C17        13.9186   -5.0333   -1.2643 C.ar      1 <0>        -0.0759
     25 C18        13.0906   -5.3445   -2.3269 C.ar      1 <0>        -0.0858
     26 C19        11.7697   -4.9376   -2.3177 C.ar      1 <0>        -0.0422
     27 Cl1        10.7284   -5.3347   -3.6488 Cl        1 <0>        -0.0472
     28 C20        14.3369   -3.9723    0.9637 C.3       1 <0>         0.5114
     29 F1         14.2701   -4.9901    1.9212 F         1 <0>        -0.1711
     30 F2         15.6525   -3.8500    0.5040 F         1 <0>        -0.1735
     31 F3         13.9296   -2.7637    1.5388 F         1 <0>        -0.1729
     32 H2          1.0492    1.9500    0.0043 H         1 <0>         0.0818
     33 H3         -0.4999    1.9477   -0.8723 H         1 <0>         0.0878
     34 H4         -0.4844    1.9353    0.9076 H         1 <0>         0.0879
     35 H5         -2.0900   -0.0867    0.0078 H         1 <0>         0.1582
     36 H6          3.8500   -0.7481   -0.9114 H         1 <0>         0.1165
     37 H7          3.8569   -0.7606    0.8685 H         1 <0>         0.1168
     38 H8          5.5287   -2.0173    2.0965 H         1 <0>         0.1398
     39 H9          7.8056   -2.9474    2.0924 H         1 <0>         0.1452
     40 H10         7.7964   -2.8993   -2.1963 H         1 <0>         0.1303
     41 H11         5.5160   -1.9780   -2.1698 H         1 <0>         0.1385
     42 H12         9.4647   -3.6701   -2.0693 H         1 <0>         0.4165
     43 H13        11.7327   -3.3291    0.6592 H         1 <0>         0.1690
     44 H14        14.9493   -5.3559   -1.2719 H         1 <0>         0.1498
     45 H15        13.4751   -5.9100   -3.1629 H         1 <0>         0.1533
@<TRIPOS>BOND
     1    1    2 1
     2    1   32 1
     3    1   33 1
     4    1   34 1
     5    2    9 1
     6    2    3 2
     7    3    4 1
     8    3   35 1
     9    4    5 2
    10    4    6 am
    11    6    7 1
    12    6    8 1
    13    8    9 2
    14    8   10 1
    15   10   11 1
    16   11   12 1
    17   11   36 1
    18   11   37 1
    19   12   17 ar
    20   12   13 ar
    21   13   14 ar
    22   13   38 1
    23   14   15 ar
    24   14   39 1
    25   15   16 ar
    26   15   18 1
    27   16   17 ar
    28   16   40 1
    29   17   41 1
    30   18   19 2
    31   18   20 am
    32   20   21 1
    33   20   42 1
    34   21   26 ar
    35   21   22 ar
    36   22   23 ar
    37   22   43 1
    38   23   24 ar
    39   23   28 1
    40   24   25 ar
    41   24   44 1
    42   25   26 ar
    43   25   45 1
    44   26   27 1
    45   28   29 1
    46   28   30 1
    47   28   31 1
@<TRIPOS>MOLECULE
ZINC39898607
   59    62     0     0     0
SMALL
USER_CHARGES

@<TRIPOS>ATOM
      1 C1         -0.0187    1.5258    0.0104 C.3       1 <0>        -0.1540
      2 C2          0.0021   -0.0041    0.0020 C.3       1 <0>        -0.1242
      3 C3         -1.4333   -0.5336    0.0129 C.3       1 <0>        -0.1170
      4 C4         -1.4126   -2.0635    0.0045 C.3       1 <0>        -0.1393
      5 C5         -2.8479   -2.5931    0.0153 C.3       1 <0>         0.1385
      6 N1         -2.8281   -4.0579    0.0073 N.am      1 <0>        -0.5928
      7 C6         -2.8219   -4.9117   -1.1877 C.3       1 <0>         0.2471
      8 H1         -1.9335   -4.7121   -1.7868 H         1 <0>         0.1099
      9 C7         -2.8004   -6.3297   -0.6864 C.2       1 <0>        -0.1695
     10 C8         -2.7833   -7.6924   -1.0027 C.2       1 <0>         0.1120
     11 N2         -2.7691   -8.3610    0.1337 N.2       1 <0>        -0.2220
     12 N3         -2.7755   -7.5558    1.1357 N.pl3     1 <0>        -0.3322
     13 H2         -2.7671   -7.8258    2.0673 H         1 <0>         0.4542
     14 C9         -2.7950   -6.2635    0.6937 C.2       1 <0>        -0.0606
     15 C10        -2.8065   -4.8517    1.0931 C.2       1 <0>         0.5980
     16 O1         -2.8005   -4.4554    2.2429 O.2       1 <0>        -0.5160
     17 C11        -2.7820   -8.2778   -2.3665 C.ar      1 <0>        -0.0268
     18 C12        -2.7930   -7.4469   -3.4840 C.ar      1 <0>        -0.0848
     19 C13        -2.7912   -7.9965   -4.7512 C.ar      1 <0>        -0.0426
     20 C14        -2.7790   -9.3715   -4.9142 C.ar      1 <0>        -0.0858
     21 C15        -2.7680  -10.2039   -3.8112 C.ar      1 <0>        -0.1333
     22 C16        -2.7638   -9.6650   -2.5346 C.ar      1 <0>         0.1385
     23 O2         -2.7474  -10.4828   -1.4497 O.3       1 <0>        -0.4779
     24 Cl1        -2.8049   -6.9601   -6.1439 Cl        1 <0>        -0.0613
     25 C17        -4.0639   -4.6681   -2.0057 C.ar      1 <0>        -0.1025
     26 C18        -5.2802   -4.4801   -1.3762 C.ar      1 <0>        -0.0904
     27 C19        -6.4195   -4.2566   -2.1265 C.ar      1 <0>        -0.1142
     28 C20        -6.3425   -4.2208   -3.5062 C.ar      1 <0>        -0.0642
     29 C21        -5.1260   -4.4079   -4.1357 C.ar      1 <0>        -0.1045
     30 C22        -3.9860   -4.6271   -3.3852 C.ar      1 <0>        -0.1042
     31 C23        -7.5847   -3.9781   -4.3242 C.3       1 <0>        -0.0595
     32 C24        -7.4039   -2.7110   -5.1625 C.3       1 <0>        -0.1448
     33 C25        -7.8269   -5.1719   -5.2501 C.3       1 <0>        -0.1450
     34 H3          1.0039    1.9031    0.0027 H         1 <0>         0.0541
     35 H4         -0.5459    1.8868   -0.8726 H         1 <0>         0.0540
     36 H5         -0.5289    1.8773    0.9072 H         1 <0>         0.0542
     37 H6          0.5123   -0.3556   -0.8948 H         1 <0>         0.0613
     38 H7          0.5293   -0.3651    0.8851 H         1 <0>         0.0614
     39 H8         -1.9435   -0.1821    0.9097 H         1 <0>         0.0655
     40 H9         -1.9605   -0.1726   -0.8702 H         1 <0>         0.0652
     41 H10        -0.9024   -2.4150   -0.8923 H         1 <0>         0.0676
     42 H11        -0.8854   -2.4246    0.8875 H         1 <0>         0.0691
     43 H12        -3.3581   -2.2415    0.9121 H         1 <0>         0.0903
     44 H13        -3.3751   -2.2320   -0.8677 H         1 <0>         0.0897
     45 H14        -2.8032   -6.3741   -3.3600 H         1 <0>         0.1474
     46 H15        -2.7784   -9.7952   -5.9076 H         1 <0>         0.1410
     47 H16        -2.7585  -11.2756   -3.9443 H         1 <0>         0.1436
     48 H17        -3.6260  -10.7316   -1.1313 H         1 <0>         0.3934
     49 H18        -5.3404   -4.5081   -0.2982 H         1 <0>         0.1162
     50 H19        -7.3699   -4.1104   -1.6347 H         1 <0>         0.1223
     51 H20        -5.0659   -4.3802   -5.2136 H         1 <0>         0.1254
     52 H21        -3.0350   -4.7696   -3.8768 H         1 <0>         0.1259
     53 H22        -8.4394   -3.8549   -3.6591 H         1 <0>         0.0775
     54 H23        -6.5492   -2.8343   -5.8276 H         1 <0>         0.0576
     55 H24        -8.3024   -2.5356   -5.7541 H         1 <0>         0.0592
     56 H25        -7.2313   -1.8606   -4.5029 H         1 <0>         0.0560
     57 H26        -7.9557   -6.0746   -4.6529 H         1 <0>         0.0557
     58 H27        -8.7254   -4.9964   -5.8417 H         1 <0>         0.0590
     59 H28        -6.9722   -5.2951   -5.9152 H         1 <0>         0.0583
@<TRIPOS>BOND
     1    1    2 1
     2    1   34 1
     3    1   35 1
     4    1   36 1
     5    2    3 1
     6    2   37 1
     7    2   38 1
     8    3    4 1
     9    3   39 1
    10    3   40 1
    11    4    5 1
    12    4   41 1
    13    4   42 1
    14    5    6 1
    15    5   43 1
    16    5   44 1
    17    6   15 am
    18    6    7 1
    19    7    8 1
    20    7    9 1
    21    7   25 1
    22    9   14 2
    23    9   10 1
    24   10   11 2
    25   10   17 1
    26   11   12 1
    27   12   13 1
    28   12   14 1
    29   14   15 1
    30   15   16 2
    31   17   22 ar
    32   17   18 ar
    33   18   19 ar
    34   18   45 1
    35   19   20 ar
    36   19   24 1
    37   20   21 ar
    38   20   46 1
    39   21   22 ar
    40   21   47 1
    41   22   23 1
    42   23   48 1
    43   25   30 ar
    44   25   26 ar
    45   26   27 ar
    46   26   49 1
    47   27   28 ar
    48   27   50 1
    49   28   29 ar
    50   28   31 1
    51   29   30 ar
    52   29   51 1
    53   30   52 1
    54   31   32 1
    55   31   33 1
    56   31   53 1
    57   32   54 1
    58   32   55 1
    59   32   56 1
    60   33   57 1
    61   33   58 1
    62   33   59 1
@<TRIPOS>MOLECULE
ZINC15567371
   43    45     0     0     0
SMALL
USER_CHARGES

@<TRIPOS>ATOM
      1 C1         -0.0651    1.5019    0.0162 C.3       1 <0>        -0.1100
      2 C2         -0.0318   -0.0047    0.0060 C.ar      1 <0>        -0.0882
      3 C3         -0.6222   -0.7007   -1.0329 C.ar      1 <0>        -0.1062
      4 C4         -0.5943   -2.0817   -1.0460 C.ar      1 <0>        -0.1046
      5 C5          0.0278   -2.7723   -0.0149 C.ar      1 <0>         0.1285
      6 C6          0.6214   -2.0704    1.0287 C.ar      1 <0>         0.0620
      7 C7          0.5941   -0.6876    1.0325 C.ar      1 <0>        -0.1338
      8 F1          1.2277   -2.7380    2.0346 F         1 <0>        -0.1393
      9 N1          0.0572   -4.1716   -0.0253 N.am      1 <0>        -0.6699
     10 C8         -0.0419   -4.8391   -1.1919 C.2       1 <0>         0.5697
     11 O1         -0.0553   -4.2278   -2.2427 O.2       1 <0>        -0.5187
     12 C9         -0.1342   -6.3145   -1.1939 C.ar      1 <0>        -0.1076
     13 C10        -0.1247   -7.0185    0.0119 C.ar      1 <0>        -0.1928
     14 C11        -0.2109   -8.3956    0.0075 C.ar      1 <0>        -0.0693
     15 C12        -0.3069   -9.0832   -1.1880 C.ar      1 <0>        -0.2381
     16 C13        -0.3167   -8.3920   -2.3938 C.ar      1 <0>         0.2743
     17 C14        -0.2368   -7.0075   -2.3998 C.ar      1 <0>        -0.1060
     18 N2         -0.4129   -9.0915   -3.5993 N.2       1 <0>        -1.0747
     19 S1         -0.5152  -10.7443   -3.5917 S.o2      1 <0>         2.5997
     20 O2          0.7256  -11.2257   -3.0938 O.2       1 <0>        -1.0241
     21 O3         -1.7579  -11.0715   -2.9852 O.2       1 <0>        -1.0081
     22 C15        -0.6211  -11.2675   -5.2709 C.ar      1 <0>        -0.6041
     23 C16         0.3932  -12.0267   -5.8235 C.ar      1 <0>        -0.0101
     24 C17         0.3100  -12.4374   -7.1418 C.ar      1 <0>        -0.0588
     25 C18        -0.7885  -12.0882   -7.9073 C.ar      1 <0>        -0.0614
     26 C19        -1.8025  -11.3292   -7.3549 C.ar      1 <0>        -0.1259
     27 C20        -1.7220  -10.9232   -6.0345 C.ar      1 <0>         0.0618
     28 Cl1        -2.9993   -9.9757   -5.3383 Cl        1 <0>        -0.0208
     29 Cl2         1.5842  -13.3905   -7.8360 Cl        1 <0>        -0.0649
     30 H1          0.8108    1.8883   -0.5049 H         1 <0>         0.0707
     31 H2         -0.9686    1.8487   -0.4854 H         1 <0>         0.0682
     32 H3         -0.0618    1.8585    1.0462 H         1 <0>         0.0656
     33 H4         -1.1062   -0.1636   -1.8352 H         1 <0>         0.1310
     34 H5         -1.0566   -2.6238   -1.8578 H         1 <0>         0.1583
     35 H6          1.0584   -0.1409    1.8400 H         1 <0>         0.1353
     36 H7          0.1489   -4.6610    0.8072 H         1 <0>         0.4149
     37 H8         -0.0495   -6.4852    0.9480 H         1 <0>         0.1052
     38 H9         -0.2031   -8.9383    0.9412 H         1 <0>         0.1111
     39 H10        -0.3741  -10.1611   -1.1851 H         1 <0>         0.1021
     40 H11        -0.2494   -6.4681   -3.3354 H         1 <0>         0.1294
     41 H12         1.2507  -12.2990   -5.2261 H         1 <0>         0.1569
     42 H13        -0.8533  -12.4085   -8.9367 H         1 <0>         0.1450
     43 H14        -2.6597  -11.0563   -7.9525 H         1 <0>         0.1476
@<TRIPOS>BOND
     1    1    2 1
     2    1   30 1
     3    1   31 1
     4    1   32 1
     5    2    7 ar
     6    2    3 ar
     7    3    4 ar
     8    3   33 1
     9    4    5 ar
    10    4   34 1
    11    5    6 ar
    12    5    9 1
    13    6    7 ar
    14    6    8 1
    15    7   35 1
    16    9   10 am
    17    9   36 1
    18   10   11 2
    19   10   12 1
    20   12   17 ar
    21   12   13 ar
    22   13   14 ar
    23   13   37 1
    24   14   15 ar
    25   14   38 1
    26   15   16 ar
    27   15   39 1
    28   16   17 ar
    29   16   18 1
    30   17   40 1
    31   18   19 1
    32   19   20 2
    33   19   21 2
    34   19   22 1
    35   22   27 ar
    36   22   23 ar
    37   23   24 ar
    38   23   41 1
    39   24   25 ar
    40   24   29 1
    41   25   26 ar
    42   25   42 1
    43   26   27 ar
    44   26   43 1
    45   27   28 1
@<TRIPOS>MOLECULE
ZINC13044207
   66    70     0     0     0
SMALL
USER_CHARGES
2-[2-(1-adamantylmethylamino)-2-oxo-ethyl]sulfanyl-3-butyl-4-oxo-quinazoline-7-carboxylic acid
@<TRIPOS>ATOM
      1 C1         -0.7766    1.6061   -3.7298 C.3       1 <0>        -0.1515
      2 C2         -0.0366    1.0992   -2.4903 C.3       1 <0>        -0.1188
      3 C3         -0.7527    1.5927   -1.2315 C.3       1 <0>        -0.1363
      4 C4         -0.0127    1.0858    0.0080 C.3       1 <0>         0.0913
      5 N1         -0.6984    1.5583    1.2133 N.am      1 <0>        -0.5291
      6 C5         -1.6777    0.8063    1.7666 C.2       1 <0>         0.5570
      7 O1         -2.0034   -0.2613    1.2813 O.2       1 <0>        -0.5148
      8 C6         -2.3344    1.3259    2.9767 C.ar      1 <0>        -0.1964
      9 C7         -3.3539    0.6216    3.6162 C.ar      1 <0>        -0.0629
     10 C8         -3.9387    1.1383    4.7365 C.ar      1 <0>        -0.0876
     11 C9         -3.5234    2.3726    5.2531 C.ar      1 <0>        -0.0667
     12 C10        -2.5097    3.0913    4.6321 C.ar      1 <0>        -0.0740
     13 C11        -1.9038    2.5725    3.4842 C.ar      1 <0>         0.1392
     14 N2         -0.9126    3.2381    2.8460 N.2       1 <0>        -0.5152
     15 C12        -0.3402    2.7514    1.7726 C.2       1 <0>         0.3367
     16 S1          0.9472    3.6831    1.0114 S.3       1 <0>         0.0609
     17 C13         1.0025    5.1099    2.1237 C.3       1 <0>        -0.1504
     18 C14         2.0643    6.0712    1.6552 C.2       1 <0>         0.5339
     19 O2          2.7191    5.8167    0.6666 O.2       1 <0>        -0.5282
     20 N3          2.2862    7.2137    2.3348 N.am      1 <0>        -0.7206
     21 C15         3.3184    8.1483    1.8793 C.3       1 <0>         0.1311
     22 C16         3.3651    9.3544    2.8196 C.3       1 <0>        -0.0650
     23 C17         2.0053   10.0557    2.8175 C.3       1 <0>        -0.1039
     24 C18         2.0521   11.2618    3.7577 C.3       1 <0>        -0.0861
     25 C19         3.1301   12.2378    3.2820 C.3       1 <0>        -0.1084
     26 C20         4.4899   11.5364    3.2841 C.3       1 <0>        -0.0843
     27 C21         4.4431   10.3304    2.3439 C.3       1 <0>        -0.0989
     28 C22         4.8184   11.0652    4.7022 C.3       1 <0>        -0.1084
     29 C23         3.7405   10.0892    5.1779 C.3       1 <0>        -0.0861
     30 C24         2.3807   10.7905    5.1757 C.3       1 <0>        -0.1106
     31 C25         3.6937    8.8831    4.2376 C.3       1 <0>        -0.1039
     32 C26        -4.1697    2.9149    6.4685 C.2       1 <0>         0.4882
     33 O3         -3.8135    3.9846    6.9198 O.co2     1 <0>        -0.6220
     34 H1         -0.2664    1.2545   -4.6266 H         1 <0>         0.0550
     35 H2         -1.7991    1.2288   -3.7221 H         1 <0>         0.0538
     36 H3         -0.7913    2.6960   -3.7239 H         1 <0>         0.0555
     37 H4          0.9860    1.4765   -2.4981 H         1 <0>         0.0669
     38 H5         -0.0218    0.0093   -2.4963 H         1 <0>         0.0648
     39 H6         -1.7753    1.2154   -1.2238 H         1 <0>         0.0708
     40 H7         -0.7675    2.6825   -1.2255 H         1 <0>         0.0738
     41 H8          0.0021   -0.0041    0.0020 H         1 <0>         0.1022
     42 H9          1.0099    1.4631    0.0003 H         1 <0>         0.0952
     43 H10        -3.6806   -0.3309    3.2258 H         1 <0>         0.1334
     44 H11        -4.7280    0.5903    5.2294 H         1 <0>         0.1429
     45 H12        -2.1926    4.0428    5.0327 H         1 <0>         0.1439
     46 H13         0.0338    5.6095    2.1222 H         1 <0>         0.1307
     47 H14         1.2366    4.7741    3.1340 H         1 <0>         0.1305
     48 H15         1.7624    7.4173    3.1255 H         1 <0>         0.4051
     49 H16         4.2871    7.6486    1.8808 H         1 <0>         0.0702
     50 H17         3.0843    8.4840    0.8691 H         1 <0>         0.0702
     51 H18         1.7713   10.3914    1.8072 H         1 <0>         0.0651
     52 H19         1.2374    9.3604    3.1563 H         1 <0>         0.0638
     53 H20         1.0834   11.7614    3.7562 H         1 <0>         0.0710
     54 H21         3.1634   13.0970    3.9519 H         1 <0>         0.0612
     55 H22         2.8960   12.5735    2.2718 H         1 <0>         0.0611
     56 H23         5.2579   12.2318    2.9453 H         1 <0>         0.0697
     57 H24         5.4118    9.8307    2.3454 H         1 <0>         0.0653
     58 H25         4.2090   10.6661    1.3336 H         1 <0>         0.0653
     59 H26         5.7872   10.5655    4.7037 H         1 <0>         0.0611
     60 H27         4.8518   11.9244    5.3720 H         1 <0>         0.0612
     61 H28         3.9745    9.7534    6.1881 H         1 <0>         0.0710
     62 H29         2.4140   11.6498    5.8456 H         1 <0>         0.0618
     63 H30         1.6127   10.0952    5.5146 H         1 <0>         0.0645
     64 H31         2.9257    8.1878    4.5765 H         1 <0>         0.0638
     65 H32         4.6624    8.3834    4.2391 H         1 <0>         0.0651
     66 O4         -5.1531    2.2223    7.0745 O.co2     1 <0>        -0.7437
@<TRIPOS>BOND
     1    1    2 1
     2    1   34 1
     3    1   35 1
     4    1   36 1
     5    2    3 1
     6    2   37 1
     7    2   38 1
     8    3    4 1
     9    3   39 1
    10    3   40 1
    11    4    5 1
    12    4   41 1
    13    4   42 1
    14    5   15 1
    15    5    6 am
    16    6    7 2
    17    6    8 1
    18    8   13 ar
    19    8    9 ar
    20    9   10 ar
    21    9   43 1
    22   10   11 ar
    23   10   44 1
    24   11   12 ar
    25   11   32 1
    26   12   13 ar
    27   12   45 1
    28   13   14 1
    29   14   15 2
    30   15   16 1
    31   16   17 1
    32   17   18 1
    33   17   46 1
    34   17   47 1
    35   18   19 2
    36   18   20 am
    37   20   21 1
    38   20   48 1
    39   21   22 1
    40   21   49 1
    41   21   50 1
    42   22   27 1
    43   22   31 1
    44   22   23 1
    45   23   24 1
    46   23   51 1
    47   23   52 1
    48   24   30 1
    49   24   25 1
    50   24   53 1
    51   25   26 1
    52   25   54 1
    53   25   55 1
    54   26   27 1
    55   26   28 1
    56   26   56 1
    57   27   57 1
    58   27   58 1
    59   28   29 1
    60   28   59 1
    61   28   60 1
    62   29   30 1
    63   29   31 1
    64   29   61 1
    65   30   62 1
    66   30   63 1
    67   31   64 1
    68   31   65 1
    69   32   33 2
    70   32   66 1
@<TRIPOS>MOLECULE
ZINC35703734
   62    64     0     0     0
SMALL
USER_CHARGES

@<TRIPOS>ATOM
      1 C1          1.4477    0.3776   -0.2744 C.3       1 <0>        -0.1163
      2 C2          0.8090   -0.9738   -0.0827 C.ar      1 <0>        -0.0364
      3 C3          0.6581   -1.8262   -1.1607 C.ar      1 <0>        -0.1269
      4 C4          0.0723   -3.0657   -0.9850 C.ar      1 <0>        -0.1188
      5 C5         -0.3624   -3.4533    0.2690 C.ar      1 <0>        -0.1302
      6 C6         -0.2107   -2.6015    1.3468 C.ar      1 <0>        -0.0890
      7 C7          0.3792   -1.3634    1.1718 C.ar      1 <0>        -0.0668
      8 C8          0.5493   -0.4368    2.3480 C.3       1 <0>         0.2551
      9 H1          1.1718    0.3982    2.0261 H         1 <0>         0.0773
     10 C9         -0.8131    0.1108    2.7103 C.2       1 <0>        -0.3944
     11 C10        -1.2759   -0.1104    3.9933 C.2       1 <0>         0.3013
     12 N1         -0.5402   -0.7802    4.8653 N.2       1 <0>        -0.5981
     13 C11         0.6515   -1.2822    4.6144 C.2       1 <0>         0.3191
     14 N2          1.2856   -1.1743    3.4091 N.pl3     1 <0>        -0.5118
     15 C12         2.5337   -1.7553    3.3041 C.2       1 <0>         0.2342
     16 C13         3.0271   -2.3822    4.3947 C.2       1 <0>        -0.3073
     17 S1          1.7181   -2.1486    5.5780 S.3       1 <0>         0.1424
     18 C14         3.2984   -1.6945    2.0502 C.2       1 <0>        -0.4697
     19 C15         4.4385   -2.4000    1.9218 C.2       1 <0>         0.5033
     20 O1          4.8072   -3.2739    2.8899 O.3       1 <0>        -0.7061
     21 N3          5.2338   -2.2325    0.8008 N.pl3     1 <0>        -0.7498
     22 C16         6.4147   -3.0777    0.6075 C.3       1 <0>         0.1421
     23 C17         7.1802   -2.6089   -0.6315 C.3       1 <0>         0.0502
     24 O2          7.6899   -1.2929   -0.4069 O.3       1 <0>        -0.3829
     25 C18         8.4253   -0.7585   -1.5094 C.3       1 <0>         0.0310
     26 C19        -2.6277    0.4155    4.4023 C.3       1 <0>        -0.1153
     27 C20        -1.5798    0.8186    1.7767 C.2       1 <0>         0.5411
     28 O3         -2.6475    1.3041    2.1078 O.2       1 <0>        -0.5459
     29 O4         -1.1359    0.9634    0.5085 O.3       1 <0>        -0.3377
     30 C21        -1.9378    1.7516   -0.3735 C.3       1 <0>         0.1198
     31 C22        -2.0704    3.1689    0.1874 C.3       1 <0>        -0.1808
     32 C23        -1.2752    1.8083   -1.7514 C.3       1 <0>        -0.1389
     33 C24        -3.3261    1.1214   -0.5007 C.3       1 <0>        -0.1805
     34 H2          2.5135    0.3100   -0.0558 H         1 <0>         0.0657
     35 H3          1.3082    0.7025   -1.3054 H         1 <0>         0.0592
     36 H4          0.9836    1.0977    0.3995 H         1 <0>         0.0774
     37 H5          0.9976   -1.5235   -2.1402 H         1 <0>         0.1128
     38 H6         -0.0463   -3.7312   -1.8272 H         1 <0>         0.1120
     39 H7         -0.8208   -4.4215    0.4062 H         1 <0>         0.1116
     40 H8         -0.5506   -2.9041    2.3262 H         1 <0>         0.1018
     41 H9          3.9711   -2.8923    4.5170 H         1 <0>         0.2307
     42 H10         2.9460   -1.0840    1.2319 H         1 <0>         0.0925
     43 H11         5.0091   -1.5554    0.1435 H         1 <0>         0.3861
     44 H12         7.0605   -3.0053    1.4826 H         1 <0>         0.0640
     45 H13         6.1021   -4.1130    0.4714 H         1 <0>         0.0614
     46 H14         8.0079   -3.2907   -0.8268 H         1 <0>         0.0555
     47 H15         6.5090   -2.5969   -1.4903 H         1 <0>         0.0494
     48 H16         7.7800   -0.7081   -2.3864 H         1 <0>         0.0380
     49 H17         8.7781    0.2422   -1.2599 H         1 <0>         0.0829
     50 H18         9.2788   -1.4019   -1.7229 H         1 <0>         0.0373
     51 H19        -3.3995   -0.2925    4.1003 H         1 <0>         0.0773
     52 H20        -2.6555    0.5436    5.4844 H         1 <0>         0.0626
     53 H21        -2.8058    1.3756    3.9180 H         1 <0>         0.1136
     54 H22        -1.0813    3.6178    0.2780 H         1 <0>         0.0554
     55 H23        -2.6820    3.7700   -0.4854 H         1 <0>         0.0602
     56 H24        -2.5424    3.1285    1.1690 H         1 <0>         0.0840
     57 H25        -1.2589    0.8097   -2.1881 H         1 <0>         0.0631
     58 H26        -1.8403    2.4788   -2.3989 H         1 <0>         0.0678
     59 H27        -0.2545    2.1768   -1.6489 H         1 <0>         0.0646
     60 H28        -3.7981    1.0810    0.4810 H         1 <0>         0.0875
     61 H29        -3.9378    1.7226   -1.1734 H         1 <0>         0.0577
     62 H30        -3.2316    0.1117   -0.9002 H         1 <0>         0.0547
@<TRIPOS>BOND
     1    1    2 1
     2    1   34 1
     3    1   35 1
     4    1   36 1
     5    2    7 ar
     6    2    3 ar
     7    3    4 ar
     8    3   37 1
     9    4    5 ar
    10    4   38 1
    11    5    6 ar
    12    5   39 1
    13    6    7 ar
    14    6   40 1
    15    7    8 1
    16    8    9 1
    17    8   14 1
    18    8   10 1
    19   10   11 2
    20   10   27 1
    21   11   12 1
    22   11   26 1
    23   12   13 2
    24   13   17 1
    25   13   14 1
    26   14   15 1
    27   15   16 2
    28   15   18 1
    29   16   17 1
    30   16   41 1
    31   18   19 2
    32   18   42 1
    33   19   20 1
    34   19   21 1
    35   21   22 1
    36   21   43 1
    37   22   23 1
    38   22   44 1
    39   22   45 1
    40   23   24 1
    41   23   46 1
    42   23   47 1
    43   24   25 1
    44   25   48 1
    45   25   49 1
    46   25   50 1
    47   26   51 1
    48   26   52 1
    49   26   53 1
    50   27   28 2
    51   27   29 1
    52   29   30 1
    53   30   31 1
    54   30   32 1
    55   30   33 1
    56   31   54 1
    57   31   55 1
    58   31   56 1
    59   32   57 1
    60   32   58 1
    61   32   59 1
    62   33   60 1
    63   33   61 1
    64   33   62 1
@<TRIPOS>MOLECULE
ZINC36053154
   59    61     0     0     0
SMALL
USER_CHARGES

@<TRIPOS>ATOM
      1 C1          2.8381   -0.9051    2.3712 C.3       1 <0>        -0.1472
      2 C2          2.5420    0.5937    2.4536 C.3       1 <0>        -0.1295
      3 C3          3.4152    1.3423    1.4446 C.3       1 <0>         0.1549
      4 H1          4.4628    1.0961    1.6176 H         1 <0>         0.0821
      5 C4          3.2110    2.8493    1.6126 C.3       1 <0>        -0.1587
      6 N1          3.0388    0.9471    0.0851 N.pl3     1 <0>        -0.7472
      7 C5          3.9762    0.9903   -0.9331 C.2       1 <0>         0.5036
      8 O1          5.2661    1.2984   -0.6540 O.3       1 <0>        -0.7032
      9 C6          3.6061    0.7262   -2.2009 C.2       1 <0>        -0.4700
     10 C7          4.5717    0.8880   -3.2973 C.2       1 <0>         0.2316
     11 C8          5.8666    1.1852   -3.0509 C.2       1 <0>        -0.3070
     12 S1          6.5474    1.2587   -4.6958 S.3       1 <0>         0.1388
     13 C9          5.1551    0.9108   -5.5661 C.2       1 <0>         0.3197
     14 N2          4.9400    0.8025   -6.8611 N.2       1 <0>        -0.5965
     15 C10         3.7706    0.5184   -7.4109 C.2       1 <0>         0.3013
     16 C11         2.6572    0.3096   -6.6197 C.2       1 <0>        -0.3919
     17 C12         2.8270    0.4175   -5.1207 C.3       1 <0>         0.2600
     18 H2          2.1432    1.1858   -4.7600 H         1 <0>         0.0726
     19 N3          4.1889    0.7361   -4.6152 N.pl3     1 <0>        -0.5117
     20 C13         2.4069   -0.8949   -4.5106 C.ar      1 <0>        -0.0652
     21 C14         3.2206   -2.0060   -4.6329 C.ar      1 <0>        -0.0971
     22 C15         2.8353   -3.2096   -4.0734 C.ar      1 <0>        -0.1201
     23 C16         1.6364   -3.3024   -3.3909 C.ar      1 <0>        -0.1219
     24 C17         0.8235   -2.1914   -3.2679 C.ar      1 <0>        -0.0937
     25 C18         1.2109   -0.9864   -3.8240 C.ar      1 <0>        -0.0741
     26 C19        -0.4834   -2.2927   -2.5245 C.3       1 <0>        -0.1080
     27 C20         1.4130    0.0087   -7.1869 C.2       1 <0>         0.5367
     28 O2          1.2989   -0.0730   -8.3976 O.2       1 <0>        -0.5513
     29 O3          0.3386   -0.1913   -6.3919 O.3       1 <0>        -0.3487
     30 C21        -0.8993   -0.4946   -7.0383 C.3       1 <0>         0.0970
     31 C22        -1.9751   -0.6836   -6.0000 C.2       1 <0>        -0.1461
     32 C23        -3.1499   -0.1281   -6.1655 C.2       1 <0>        -0.1830
     33 C24         3.6520    0.4223   -8.9101 C.3       1 <0>        -0.0916
     34 H3          2.6199   -1.2638    1.3652 H         1 <0>         0.0578
     35 H4          3.8893   -1.0809    2.5995 H         1 <0>         0.0525
     36 H5          2.2160   -1.4384    3.0900 H         1 <0>         0.0453
     37 H6          1.4908    0.7695    2.2252 H         1 <0>         0.0576
     38 H7          2.7602    0.9524    3.4595 H         1 <0>         0.0647
     39 H8          2.1842    3.1079    1.3542 H         1 <0>         0.0455
     40 H9          3.4067    3.1293    2.6477 H         1 <0>         0.0488
     41 H10         3.8968    3.3843    0.9557 H         1 <0>         0.0591
     42 H11         2.1328    0.6551   -0.1018 H         1 <0>         0.3823
     43 H12         2.5998    0.3955   -2.4119 H         1 <0>         0.0911
     44 H13         6.3607    1.3385   -2.1029 H         1 <0>         0.2374
     45 H14         4.1570   -1.9335   -5.1660 H         1 <0>         0.1031
     46 H15         3.4705   -4.0777   -4.1695 H         1 <0>         0.1137
     47 H16         1.3351   -4.2431   -2.9543 H         1 <0>         0.1131
     48 H17         0.5775   -0.1173   -3.7246 H         1 <0>         0.1166
     49 H18        -0.3360   -1.9904   -1.4877 H         1 <0>         0.0664
     50 H19        -1.2193   -1.6388   -2.9925 H         1 <0>         0.0618
     51 H20        -0.8403   -3.3222   -2.5555 H         1 <0>         0.0598
     52 H21        -1.1739    0.3263   -7.7008 H         1 <0>         0.0644
     53 H22        -0.7908   -1.4101   -7.6198 H         1 <0>         0.0690
     54 H23        -1.7775   -1.2769   -5.1195 H         1 <0>         0.1183
     55 H24        -3.3475    0.4652   -7.0460 H         1 <0>         0.0971
     56 H25        -3.9208   -0.2635   -5.4214 H         1 <0>         0.1039
     57 H26         4.6237    0.6159   -9.3646 H         1 <0>         0.0638
     58 H27         3.3152   -0.5773   -9.1846 H         1 <0>         0.0858
     59 H28         2.9315    1.1589   -9.2655 H         1 <0>         0.0861
@<TRIPOS>BOND
     1    1    2 1
     2    1   34 1
     3    1   35 1
     4    1   36 1
     5    2    3 1
     6    2   37 1
     7    2   38 1
     8    3    4 1
     9    3    5 1
    10    3    6 1
    11    5   39 1
    12    5   40 1
    13    5   41 1
    14    6    7 1
    15    6   42 1
    16    7    8 1
    17    7    9 2
    18    9   10 1
    19    9   43 1
    20   10   19 1
    21   10   11 2
    22   11   12 1
    23   11   44 1
    24   12   13 1
    25   13   19 1
    26   13   14 2
    27   14   15 1
    28   15   16 2
    29   15   33 1
    30   16   17 1
    31   16   27 1
    32   17   18 1
    33   17   19 1
    34   17   20 1
    35   20   25 ar
    36   20   21 ar
    37   21   22 ar
    38   21   45 1
    39   22   23 ar
    40   22   46 1
    41   23   24 ar
    42   23   47 1
    43   24   25 ar
    44   24   26 1
    45   25   48 1
    46   26   49 1
    47   26   50 1
    48   26   51 1
    49   27   28 2
    50   27   29 1
    51   29   30 1
    52   30   31 1
    53   30   52 1
    54   30   53 1
    55   31   32 2
    56   31   54 1
    57   32   55 1
    58   32   56 1
    59   33   57 1
    60   33   58 1
    61   33   59 1
@<TRIPOS>MOLECULE
ZINC36064709
   63    66     0     0     0
SMALL
USER_CHARGES

@<TRIPOS>ATOM
      1 C1         -0.3261    1.2382   -0.4985 C.3       1 <0>        -0.1425
      2 C2         -0.3440   -0.2915   -0.4716 C.3       1 <0>        -0.0758
      3 C3         -1.7574   -0.7738   -0.2702 C.2       1 <0>         0.2552
      4 C4         -2.5565   -1.0342   -1.3669 C.2       1 <0>        -0.3759
      5 C5         -3.9672   -1.5167   -1.1130 C.3       1 <0>         0.2713
      6 H1         -4.0856   -2.4817   -1.6058 H         1 <0>         0.0742
      7 N1         -4.3837   -1.6732    0.3061 N.pl3     1 <0>        -0.5199
      8 C6         -5.6134   -2.0968    0.7694 C.2       1 <0>         0.2351
      9 C7         -5.7878   -2.1705    2.1074 C.2       1 <0>        -0.3096
     10 S1         -4.2006   -1.6366    2.7160 S.3       1 <0>         0.1164
     11 C8         -3.4403   -1.3621    1.2451 C.2       1 <0>         0.3243
     12 N2         -2.2231   -0.9504    0.9556 N.2       1 <0>        -0.5930
     13 C9         -6.6947   -2.4545   -0.1598 C.2       1 <0>        -0.4651
     14 C10        -7.8380   -2.9888    0.3109 C.2       1 <0>         0.5016
     15 O1         -8.0384   -3.0908    1.6474 O.3       1 <0>        -0.7057
     16 N3         -8.8086   -3.4340   -0.5706 N.pl3     1 <0>        -0.7500
     17 C11       -10.0963   -3.9125   -0.0618 C.3       1 <0>         0.1341
     18 C12       -10.9321   -4.4578   -1.2215 C.3       1 <0>         0.0681
     19 H2        -11.0198   -3.7015   -2.0015 H         1 <0>         0.0798
     20 C13       -12.3360   -4.8528   -0.7149 C.3       1 <0>        -0.1475
     21 C14       -12.6168   -6.1588   -1.5070 C.3       1 <0>        -0.1557
     22 C15       -11.1926   -6.7633   -1.5918 C.3       1 <0>         0.0489
     23 O2        -10.3148   -5.6356   -1.7537 O.3       1 <0>        -0.3719
     24 C16        -4.9147   -0.5460   -1.7694 C.ar      1 <0>        -0.0678
     25 C17        -5.4073    0.5299   -1.0544 C.ar      1 <0>        -0.0770
     26 C18        -6.2763    1.4202   -1.6565 C.ar      1 <0>        -0.0901
     27 C19        -6.6527    1.2350   -2.9739 C.ar      1 <0>        -0.1202
     28 C20        -6.1596    0.1599   -3.6890 C.ar      1 <0>        -0.1163
     29 C21        -5.2869   -0.7282   -3.0880 C.ar      1 <0>        -0.0732
     30 C22        -4.7451   -1.8975   -3.8692 C.3       1 <0>        -0.1169
     31 C23        -6.8140    2.5924   -0.8769 C.3       1 <0>        -0.1084
     32 C24        -2.0763   -0.8568   -2.6701 C.2       1 <0>         0.5623
     33 O3         -2.3233    0.1716   -3.2759 O.2       1 <0>        -0.4995
     34 O4         -1.3390   -1.8258   -3.2563 O.3       1 <0>        -0.3589
     35 C25        -0.8819   -1.5776   -4.5873 C.3       1 <0>         0.0321
     36 H3          0.6962    1.5870   -0.6442 H         1 <0>         0.0577
     37 H4         -0.9517    1.5945   -1.3168 H         1 <0>         0.0579
     38 H5         -0.7100    1.6227    0.4464 H         1 <0>         0.0606
     39 H6          0.0399   -0.6760   -1.4165 H         1 <0>         0.0724
     40 H7          0.2816   -0.6478    0.3468 H         1 <0>         0.0852
     41 H8         -6.6625   -2.4737    2.6636 H         1 <0>         0.2351
     42 H9         -6.5725   -2.2889   -1.2200 H         1 <0>         0.0857
     43 H10        -8.6359   -3.4289   -1.5251 H         1 <0>         0.3866
     44 H11        -9.9270   -4.7044    0.6679 H         1 <0>         0.0583
     45 H12       -10.6282   -3.0882    0.4134 H         1 <0>         0.0546
     46 H13       -12.3213   -5.0454    0.3579 H         1 <0>         0.0816
     47 H14       -13.0681   -4.0841   -0.9621 H         1 <0>         0.0817
     48 H15       -13.2901   -6.8154   -0.9560 H         1 <0>         0.0810
     49 H16       -13.0101   -5.9393   -2.4996 H         1 <0>         0.0758
     50 H17       -10.9543   -7.3004   -0.6738 H         1 <0>         0.0591
     51 H18       -11.1147   -7.4289   -2.4515 H         1 <0>         0.0812
     52 H19        -5.1133    0.6745   -0.0254 H         1 <0>         0.1058
     53 H20        -7.3324    1.9303   -3.4442 H         1 <0>         0.1141
     54 H21        -6.4539    0.0151   -4.7180 H         1 <0>         0.1147
     55 H22        -5.4542   -2.7241   -3.8246 H         1 <0>         0.0715
     56 H23        -4.5958   -1.6026   -4.9079 H         1 <0>         0.0629
     57 H24        -3.7935   -2.2114   -3.4403 H         1 <0>         0.0602
     58 H25        -6.1461    3.4454   -0.9966 H         1 <0>         0.0635
     59 H26        -7.8052    2.8521   -1.2486 H         1 <0>         0.0619
     60 H27        -6.8796    2.3275    0.1784 H         1 <0>         0.0640
     61 H28        -1.7389   -1.4245   -5.2432 H         1 <0>         0.0554
     62 H29        -0.2542   -0.6865   -4.5957 H         1 <0>         0.0550
     63 H30        -0.3038   -2.4324   -4.9383 H         1 <0>         0.0941
@<TRIPOS>BOND
     1    1    2 1
     2    1   36 1
     3    1   37 1
     4    1   38 1
     5    2    3 1
     6    2   39 1
     7    2   40 1
     8    3   12 1
     9    3    4 2
    10    4    5 1
    11    4   32 1
    12    5    6 1
    13    5    7 1
    14    5   24 1
    15    7   11 1
    16    7    8 1
    17    8    9 2
    18    8   13 1
    19    9   10 1
    20    9   41 1
    21   10   11 1
    22   11   12 2
    23   13   14 2
    24   13   42 1
    25   14   15 1
    26   14   16 1
    27   16   17 1
    28   16   43 1
    29   17   18 1
    30   17   44 1
    31   17   45 1
    32   18   19 1
    33   18   23 1
    34   18   20 1
    35   20   21 1
    36   20   46 1
    37   20   47 1
    38   21   22 1
    39   21   48 1
    40   21   49 1
    41   22   23 1
    42   22   50 1
    43   22   51 1
    44   24   29 ar
    45   24   25 ar
    46   25   26 ar
    47   25   52 1
    48   26   27 ar
    49   26   31 1
    50   27   28 ar
    51   27   53 1
    52   28   29 ar
    53   28   54 1
    54   29   30 1
    55   30   55 1
    56   30   56 1
    57   30   57 1
    58   31   58 1
    59   31   59 1
    60   31   60 1
    61   32   33 2
    62   32   34 1
    63   34   35 1
    64   35   61 1
    65   35   62 1
    66   35   63 1
@<TRIPOS>MOLECULE
ZINC39693153
   53    56     0     0     0
SMALL
USER_CHARGES

@<TRIPOS>ATOM
      1 C1          2.7779    2.3363   -3.2051 C.3       1 <0>        -0.1528
      2 C2          2.5438    1.7127   -1.8276 C.3       1 <0>        -0.0848
      3 C3          1.7727    0.4273   -1.9827 C.ar      1 <0>        -0.0577
      4 C4          1.2798    0.0617   -3.2198 C.ar      1 <0>        -0.1233
      5 C5          0.5721   -1.1178   -3.3629 C.ar      1 <0>        -0.1006
      6 C6          0.3553   -1.9350   -2.2686 C.ar      1 <0>        -0.1207
      7 C7          0.8448   -1.5754   -1.0284 C.ar      1 <0>        -0.0601
      8 C8          1.5616   -0.3942   -0.8822 C.ar      1 <0>         0.1340
      9 N1          2.0637   -0.0302    0.3697 N.pl3     1 <0>        -0.6220
     10 C9          3.3534   -0.3992    0.7356 C.2       1 <0>         0.3465
     11 N2          4.2585   -1.0669    0.0473 N.2       1 <0>        -0.3545
     12 N3          5.4885   -1.3277    0.6056 N.2       1 <0>        -0.2754
     13 C10         5.7566   -0.9082    1.8276 C.2       1 <0>         0.0401
     14 S1          4.2298   -0.0884    2.2608 S.3       1 <0>         0.0030
     15 S2          7.2291   -1.1002    2.7761 S.3       1 <0>         0.0789
     16 C11         8.3387   -2.0277    1.6810 C.3       1 <0>        -0.0983
     17 C12         9.6529   -2.2630    2.3799 C.2       1 <0>         0.0145
     18 C13         9.8958   -3.4279    3.0105 C.2       1 <0>        -0.2054
     19 C14        11.1697   -3.6546    3.6867 C.2       1 <0>         0.5347
     20 O1         11.3710   -4.7175    4.2529 O.2       1 <0>        -0.4803
     21 N4         12.1193   -2.7127    3.6934 N.2       1 <0>        -0.5655
     22 C15        11.9520   -1.5591    3.1020 C.2       1 <0>         0.2936
     23 C16        10.7094   -1.2147    2.3810 C.2       1 <0>        -0.2342
     24 C17        10.6425    0.0003    1.8009 C.2       1 <0>         0.0646
     25 C18        11.8418    0.9091    1.9295 C.3       1 <0>        -0.1353
     26 H1         12.2646    1.1378    0.9513 H         1 <0>         0.1531
     27 S3         12.9884   -0.1241    2.9273 S.3       1 <0>         0.0264
     28 C19        11.4842    2.1728    2.6684 C.2       1 <0>         0.5229
     29 O2         11.6781    2.2523    3.8695 O.co2     1 <0>        -0.6408
     30 O3         11.0010    3.1158    2.0652 O.co2     1 <0>        -0.6556
     31 C20         9.4119    0.4371    1.0485 C.3       1 <0>        -0.1542
     32 C21         0.6077   -2.4663    0.1636 C.3       1 <0>        -0.0851
     33 C22        -0.6258   -1.9795    0.9269 C.3       1 <0>        -0.1430
     34 H2          3.2742    1.6128   -3.8518 H         1 <0>         0.0599
     35 H3          1.8207    2.6189   -3.6434 H         1 <0>         0.0580
     36 H4          3.4055    3.2214   -3.1013 H         1 <0>         0.0599
     37 H5          3.5037    1.5058   -1.3546 H         1 <0>         0.0749
     38 H6          1.9748    2.4052   -1.2073 H         1 <0>         0.0765
     39 H7          1.4471    0.6977   -4.0764 H         1 <0>         0.1321
     40 H8          0.1875   -1.4011   -4.3315 H         1 <0>         0.1257
     41 H9         -0.1979   -2.8554   -2.3839 H         1 <0>         0.1258
     42 H10         1.5125    0.4799    0.9837 H         1 <0>         0.4268
     43 H11         7.8839   -2.9861    1.4302 H         1 <0>         0.1169
     44 H12         8.5095   -1.4566    0.7685 H         1 <0>         0.1281
     45 H13         9.1416   -4.2009    3.0163 H         1 <0>         0.1478
     46 H14         8.5389    0.3433    1.6943 H         1 <0>         0.1021
     47 H15         9.5250    1.4761    0.7391 H         1 <0>         0.1007
     48 H16         9.2819   -0.1922    0.1681 H         1 <0>         0.0895
     49 H17         0.4453   -3.4898   -0.1743 H         1 <0>         0.0741
     50 H18         1.4772   -2.4341    0.8201 H         1 <0>         0.0694
     51 H19        -0.7466   -2.5687    1.8359 H         1 <0>         0.0597
     52 H20        -0.4997   -0.9290    1.1889 H         1 <0>         0.0522
     53 H21        -1.5098   -2.0938    0.2995 H         1 <0>         0.0574
@<TRIPOS>BOND
     1    1    2 1
     2    1   34 1
     3    1   35 1
     4    1   36 1
     5    2    3 1
     6    2   37 1
     7    2   38 1
     8    3    8 ar
     9    3    4 ar
    10    4    5 ar
    11    4   39 1
    12    5    6 ar
    13    5   40 1
    14    6    7 ar
    15    6   41 1
    16    7    8 ar
    17    7   32 1
    18    8    9 1
    19    9   10 1
    20    9   42 1
    21   10   14 1
    22   10   11 2
    23   11   12 1
    24   12   13 2
    25   13   14 1
    26   13   15 1
    27   15   16 1
    28   16   17 1
    29   16   43 1
    30   16   44 1
    31   17   23 1
    32   17   18 2
    33   18   19 1
    34   18   45 1
    35   19   20 2
    36   19   21 1
    37   21   22 2
    38   22   27 1
    39   22   23 1
    40   23   24 2
    41   24   25 1
    42   24   31 1
    43   25   26 1
    44   25   27 1
    45   25   28 1
    46   28   29 2
    47   28   30 1
    48   31   46 1
    49   31   47 1
    50   31   48 1
    51   32   33 1
    52   32   49 1
    53   32   50 1
    54   33   51 1
    55   33   52 1
    56   33   53 1
@<TRIPOS>MOLECULE
ZINC05131032
   39    42     0     0     0
SMALL
USER_CHARGES
3-benzothiazol-2-yl-4-(2-naphthyl)but-3-enoic acid
@<TRIPOS>ATOM
      1 C1          2.0414    1.1959   -1.3185 C.ar      1 <0>        -0.1137
      2 C2          2.9873    1.9549   -2.0050 C.ar      1 <0>        -0.1310
      3 C3          3.0005    3.3122   -1.9069 C.ar      1 <0>        -0.0843
      4 C4          2.0543    3.9605   -1.0924 C.ar      1 <0>        -0.0549
      5 C5          2.0437    5.3571   -0.9651 C.ar      1 <0>        -0.0743
      6 C6          1.0946    5.9604   -0.1527 C.ar      1 <0>        -0.0687
      7 C7          0.1479    5.1805    0.5396 C.ar      1 <0>        -0.0911
      8 C8          0.1453    3.8286    0.4272 C.ar      1 <0>        -0.1227
      9 C9          1.0956    3.1873   -0.3894 C.ar      1 <0>        -0.0467
     10 C10         1.1107    1.7890   -0.5210 C.ar      1 <0>        -0.1184
     11 C11         1.0766    7.4256   -0.0136 C.2       1 <0>        -0.0551
     12 C12         2.2321    8.1029    0.1279 C.2       1 <0>        -0.0186
     13 C13         3.5455    7.3640    0.1116 C.3       1 <0>        -0.1430
     14 C14         4.1508    7.4459   -1.2661 C.2       1 <0>         0.4670
     15 O1          3.5749    8.0430   -2.1445 O.co2     1 <0>        -0.6237
     16 C15         2.2123    9.5590    0.2978 C.2       1 <0>         0.2411
     17 N1          1.1760   10.3742    0.3379 N.2       1 <0>        -0.5234
     18 C16         1.3053   11.6986    0.5008 C.ar      1 <0>         0.0938
     19 C17         0.2817   12.6756    0.5611 C.ar      1 <0>        -0.0702
     20 C18         0.5826   13.9901    0.7325 C.ar      1 <0>        -0.1144
     21 C19         1.8942   14.4284    0.8542 C.ar      1 <0>        -0.1114
     22 C20         2.9242   13.5077    0.8009 C.ar      1 <0>        -0.0616
     23 C21         2.6319   12.1770    0.6286 C.ar      1 <0>        -0.1624
     24 S1          3.5859   10.6829    0.5114 S.3       1 <0>         0.0184
     25 H1          2.0495    0.1204   -1.4169 H         1 <0>         0.1181
     26 H2          3.7176    1.4590   -2.6272 H         1 <0>         0.1212
     27 H3          3.7365    3.8883   -2.4481 H         1 <0>         0.1348
     28 H4          2.7684    5.9578   -1.4947 H         1 <0>         0.1556
     29 H5         -0.5851    5.6648    1.1677 H         1 <0>         0.1242
     30 H6         -0.5867    3.2439    0.9645 H         1 <0>         0.1245
     31 H7          0.3872    1.1867    0.0083 H         1 <0>         0.1221
     32 H8          0.1368    7.9576   -0.0250 H         1 <0>         0.1348
     33 H9          4.2252    7.8151    0.8345 H         1 <0>         0.0749
     34 H10         3.3778    6.3193    0.3733 H         1 <0>         0.0973
     35 H11        -0.7509   12.3724    0.4702 H         1 <0>         0.1287
     36 H12        -0.2194   14.7122    0.7746 H         1 <0>         0.1285
     37 H13         2.1079   15.4784    0.9897 H         1 <0>         0.1335
     38 H14         3.9500   13.8321    0.8943 H         1 <0>         0.1303
     39 O2          5.3298    6.8555   -1.5172 O.co2     1 <0>        -0.7592
@<TRIPOS>BOND
     1    1   10 ar
     2    1    2 ar
     3    1   25 1
     4    2    3 ar
     5    2   26 1
     6    3    4 ar
     7    3   27 1
     8    4    9 ar
     9    4    5 ar
    10    5    6 ar
    11    5   28 1
    12    6    7 ar
    13    6   11 1
    14    7    8 ar
    15    7   29 1
    16    8    9 ar
    17    8   30 1
    18    9   10 ar
    19   10   31 1
    20   11   12 2
    21   11   32 1
    22   12   13 1
    23   12   16 1
    24   13   14 1
    25   13   33 1
    26   13   34 1
    27   14   15 2
    28   14   39 1
    29   16   24 1
    30   16   17 2
    31   17   18 1
    32   18   23 ar
    33   18   19 ar
    34   19   20 ar
    35   19   35 1
    36   20   21 ar
    37   20   36 1
    38   21   22 ar
    39   21   37 1
    40   22   23 ar
    41   22   38 1
    42   23   24 1
@<TRIPOS>MOLECULE
ZINC04880533
   37    38     0     0     0
SMALL
USER_CHARGES
2-chloro-3-(hexylamino)naphthalene-1,4-dione
@<TRIPOS>ATOM
      1 C1         -4.1308   -4.7286    0.4167 C.3       1 <0>        -0.1531
      2 C2         -2.7114   -4.1730    0.2834 C.3       1 <0>        -0.1260
      3 C3         -2.7605   -2.6438    0.2812 C.3       1 <0>        -0.1188
      4 C4         -1.3412   -2.0882    0.1478 C.3       1 <0>        -0.1174
      5 C5         -1.3902   -0.5590    0.1456 C.3       1 <0>        -0.1009
      6 C6          0.0291   -0.0035    0.0122 C.3       1 <0>         0.0632
      7 N1         -0.0178    1.4608    0.0101 N.2       1 <0>        -0.5880
      8 C7          1.1545    2.1887    0.0022 C.2       1 <0>         0.1757
      9 C8          1.1071    3.5371    0.1125 C.2       1 <0>        -0.3561
     10 C9          2.3340    4.3352    0.1077 C.2       1 <0>         0.4112
     11 O1          2.2727    5.5458    0.2078 O.3       1 <0>        -0.5318
     12 C10         3.6499    3.6684   -0.0196 C.ar      1 <0>        -0.0738
     13 C11         4.8240    4.4099   -0.0265 C.ar      1 <0>        -0.0920
     14 C12         6.0458    3.7654   -0.1472 C.ar      1 <0>        -0.1058
     15 C13         6.1036    2.3898   -0.2607 C.ar      1 <0>        -0.1296
     16 C14         4.9406    1.6359   -0.2554 C.ar      1 <0>        -0.0761
     17 C15         3.7085    2.2684   -0.1351 C.ar      1 <0>        -0.1347
     18 C16         2.4538    1.4861   -0.1208 C.2       1 <0>         0.4055
     19 O2          2.4873    0.2759   -0.2144 O.2       1 <0>        -0.4556
     20 Cl1        -0.4298    4.3304    0.2623 Cl        1 <0>        -0.1010
     21 H1         -4.0955   -5.8280    0.4183 H         1 <0>         0.0499
     22 H2         -4.7411   -4.3825   -0.4305 H         1 <0>         0.0527
     23 H3         -4.5762   -4.3747    1.3582 H         1 <0>         0.0527
     24 H4         -2.1011   -4.5191    1.1306 H         1 <0>         0.0592
     25 H5         -2.2660   -4.5269   -0.6581 H         1 <0>         0.0591
     26 H6         -3.3709   -2.2978   -0.5660 H         1 <0>         0.0596
     27 H7         -3.2059   -2.2899    1.2227 H         1 <0>         0.0596
     28 H8         -0.7309   -2.4343    0.9950 H         1 <0>         0.0561
     29 H9         -0.8959   -2.4421   -0.7937 H         1 <0>         0.0563
     30 H10        -2.0006   -0.2129   -0.7016 H         1 <0>         0.0565
     31 H11        -1.8355   -0.2050    1.0871 H         1 <0>         0.0563
     32 H12         0.6394   -0.3496    0.8594 H         1 <0>         0.0340
     33 H13         0.4744   -0.3575   -0.9293 H         1 <0>         0.0364
     34 H14         4.7856    5.4856    0.0618 H         1 <0>         0.1360
     35 H15         6.9585    4.3428   -0.1525 H         1 <0>         0.1253
     36 H16         7.0610    1.8988   -0.3545 H         1 <0>         0.1246
     37 H17         4.9914    0.5608   -0.3448 H         1 <0>         0.1306
@<TRIPOS>BOND
     1    1    2 1
     2    1   21 1
     3    1   22 1
     4    1   23 1
     5    2    3 1
     6    2   24 1
     7    2   25 1
     8    3    4 1
     9    3   26 1
    10    3   27 1
    11    4    5 1
    12    4   28 1
    13    4   29 1
    14    5    6 1
    15    5   30 1
    16    5   31 1
    17    6    7 1
    18    6   32 1
    19    6   33 1
    20    7    8 2
    21    8   18 1
    22    8    9 1
    23    9   10 2
    24    9   20 1
    25   10   11 1
    26   10   12 1
    27   12   17 ar
    28   12   13 ar
    29   13   14 ar
    30   13   34 1
    31   14   15 ar
    32   14   35 1
    33   15   16 ar
    34   15   36 1
    35   16   17 ar
    36   16   37 1
    37   17   18 1
    38   18   19 2
@<TRIPOS>MOLECULE
ZINC37528730
   30    31     0     0     0
SMALL
USER_CHARGES

@<TRIPOS>ATOM
      1 C1         -2.4214   -2.5343   -1.1457 C.ar      1 <0>        -0.1313
      2 C2         -3.3698   -2.8886   -0.2040 C.ar      1 <0>        -0.1062
      3 C3         -3.0860   -2.7669    1.1428 C.ar      1 <0>        -0.1556
      4 C4         -1.8512   -2.2897    1.5493 C.ar      1 <0>         0.0989
      5 C5         -0.9024   -1.9352    0.6056 C.ar      1 <0>        -0.0994
      6 C6         -1.1885   -2.0579   -0.7411 C.ar      1 <0>        -0.0931
      7 C7          0.4416   -1.4153    1.0463 C.3       1 <0>        -0.0609
      8 C8          1.3354   -2.5897    1.4499 C.3       1 <0>        -0.1450
      9 H1          0.8249   -3.1938    2.2000 H         1 <0>         0.0658
     10 C9          1.6344   -3.4493    0.2201 C.3       1 <0>        -0.0244
     11 C10         2.4112   -4.6711    0.6380 C.2       1 <0>        -0.0863
     12 C11         1.9494   -5.8879    1.0158 C.2       1 <0>        -0.1888
     13 C12         2.8569   -6.8721    1.3612 C.2       1 <0>        -0.1016
     14 C13         4.1827   -6.5901    1.3115 C.2       1 <0>        -0.2095
     15 S1          4.1786   -4.8934    0.7562 S.3       1 <0>         0.1402
     16 Br1         5.6537   -7.7067    1.7176 Br        1 <0>         0.0157
     17 C14         2.6270   -2.0646    2.0219 C.2       1 <0>         0.5008
     18 O1          3.3475   -1.3505    1.3455 O.co2     1 <0>        -0.6935
     19 O2          2.9514   -2.3539    3.1610 O.co2     1 <0>        -0.6886
     20 F1         -1.5728   -2.1698    2.8659 F         1 <0>        -0.1338
     21 H2         -2.6425   -2.6340   -2.1981 H         1 <0>         0.1252
     22 H3         -4.3328   -3.2604   -0.5213 H         1 <0>         0.1265
     23 H4         -3.8271   -3.0434    1.8782 H         1 <0>         0.1303
     24 H5         -0.4484   -1.7817   -1.4776 H         1 <0>         0.1322
     25 H6          0.9072   -0.8698    0.2255 H         1 <0>         0.0827
     26 H7          0.3115   -0.7481    1.8984 H         1 <0>         0.0734
     27 H8          0.6977   -3.7559   -0.2454 H         1 <0>         0.0772
     28 H9          2.2223   -2.8713   -0.4930 H         1 <0>         0.0847
     29 H10         0.8881   -6.0858    1.0470 H         1 <0>         0.1332
     30 H11         2.5154   -7.8502    1.6662 H         1 <0>         0.1313
@<TRIPOS>BOND
     1    1    6 ar
     2    1    2 ar
     3    1   21 1
     4    2    3 ar
     5    2   22 1
     6    3    4 ar
     7    3   23 1
     8    4    5 ar
     9    4   20 1
    10    5    6 ar
    11    5    7 1
    12    6   24 1
    13    7    8 1
    14    7   25 1
    15    7   26 1
    16    8    9 1
    17    8   10 1
    18    8   17 1
    19   10   11 1
    20   10   27 1
    21   10   28 1
    22   11   15 1
    23   11   12 2
    24   12   13 1
    25   12   29 1
    26   13   14 2
    27   13   30 1
    28   14   15 1
    29   14   16 1
    30   17   18 2
    31   17   19 1
@<TRIPOS>MOLECULE
ZINC41981753
   43    44     0     0     0
SMALL
USER_CHARGES

@<TRIPOS>ATOM
      1 C1         -0.0694    1.7971   -0.6913 C.3       1 <0>        -0.1463
      2 C2         -0.0988    0.3359   -0.2386 C.3       1 <0>        -0.0947
      3 C3          0.7108   -0.5175   -1.2169 C.3       1 <0>        -0.0473
      4 H1          0.3328   -0.3682   -2.2283 H         1 <0>         0.0956
      5 C4          0.5791   -1.9935   -0.8360 C.3       1 <0>        -0.1497
      6 S1          2.4561   -0.0280   -1.1453 S.3       1 <0>        -0.2623
      7 C5          3.1171   -0.5219   -2.7607 C.3       1 <0>        -0.0854
      8 C6          2.8159   -2.0021   -3.0041 C.3       1 <0>        -0.0909
      9 C7          3.3734   -2.4187   -4.3666 C.3       1 <0>        -0.1188
     10 C8          4.8870   -2.1959   -4.3881 C.3       1 <0>        -0.0344
     11 C9          5.1881   -0.7157   -4.1448 C.3       1 <0>        -0.1159
     12 C10         4.6306   -0.2991   -2.7822 C.3       1 <0>        -0.0724
     13 C11         5.4361   -2.6062   -5.7302 C.ar      1 <0>        -0.0607
     14 C12         4.9944   -1.9774   -6.8793 C.ar      1 <0>        -0.1035
     15 C13         5.4981   -2.3538   -8.1103 C.ar      1 <0>        -0.1236
     16 C14         6.4439   -3.3587   -8.1922 C.ar      1 <0>        -0.1356
     17 C15         6.8863   -3.9868   -7.0431 C.ar      1 <0>        -0.1284
     18 C16         6.3857   -3.6075   -5.8116 C.ar      1 <0>        -0.1259
     19 C17         2.4720    0.3063   -3.8419 C.2       1 <0>         0.5047
     20 O1          1.6432    1.1514   -3.5498 O.co2     1 <0>        -0.6682
     21 O2          2.7790    0.1313   -5.0088 O.co2     1 <0>        -0.6750
     22 H2          0.9617    2.1498   -0.7138 H         1 <0>         0.0727
     23 H3         -0.5028    1.8774   -1.6882 H         1 <0>         0.0584
     24 H4         -0.6462    2.4050    0.0057 H         1 <0>         0.0371
     25 H5          0.3345    0.2555    0.7583 H         1 <0>         0.0565
     26 H6         -1.1299   -0.0168   -0.2160 H         1 <0>         0.0594
     27 H7          1.0607   -2.1647    0.1268 H         1 <0>         0.0575
     28 H8         -0.4760   -2.2581   -0.7667 H         1 <0>         0.0507
     29 H9          1.0589   -2.6093   -1.5968 H         1 <0>         0.0636
     30 H10         3.2825   -2.6011   -2.2220 H         1 <0>         0.0523
     31 H11         1.7376   -2.1608   -2.9888 H         1 <0>         0.0585
     32 H12         3.1589   -3.4732   -4.5400 H         1 <0>         0.0412
     33 H13         2.9069   -1.8196   -5.1487 H         1 <0>         0.1104
     34 H14         5.3535   -2.7949   -3.6061 H         1 <0>         0.0587
     35 H15         6.2664   -0.5570   -4.1601 H         1 <0>         0.0436
     36 H16         4.7216   -0.1167   -4.9268 H         1 <0>         0.1115
     37 H17         4.8451    0.7554   -2.6089 H         1 <0>         0.0576
     38 H18         5.0972   -0.8982   -2.0002 H         1 <0>         0.0502
     39 H19         4.2555   -1.1924   -6.8153 H         1 <0>         0.1404
     40 H20         5.1525   -1.8631   -9.0081 H         1 <0>         0.1169
     41 H21         6.8369   -3.6532   -9.1541 H         1 <0>         0.1131
     42 H22         7.6249   -4.7721   -7.1071 H         1 <0>         0.1135
     43 H23         6.7341   -4.0957   -4.9134 H         1 <0>         0.1148
@<TRIPOS>BOND
     1    1    2 1
     2    1   22 1
     3    1   23 1
     4    1   24 1
     5    2    3 1
     6    2   25 1
     7    2   26 1
     8    3    4 1
     9    3    5 1
    10    3    6 1
    11    5   27 1
    12    5   28 1
    13    5   29 1
    14    6    7 1
    15    7   12 1
    16    7    8 1
    17    7   19 1
    18    8    9 1
    19    8   30 1
    20    8   31 1
    21    9   10 1
    22    9   32 1
    23    9   33 1
    24   10   11 1
    25   10   13 1
    26   10   34 1
    27   11   12 1
    28   11   35 1
    29   11   36 1
    30   12   37 1
    31   12   38 1
    32   13   18 ar
    33   13   14 ar
    34   14   15 ar
    35   14   39 1
    36   15   16 ar
    37   15   40 1
    38   16   17 ar
    39   16   41 1
    40   17   18 ar
    41   17   42 1
    42   18   43 1
    43   19   20 2
    44   19   21 1
@<TRIPOS>MOLECULE
ZINC57901906
   41    42     0     0     0
SMALL
USER_CHARGES

@<TRIPOS>ATOM
      1 C1         -0.0184    1.5028    0.0103 C.3       1 <0>        -0.1124
      2 C2          0.0021   -0.0041    0.0020 C.ar      1 <0>        -0.0857
      3 C3          0.0057   -0.6887   -1.1989 C.ar      1 <0>        -0.1275
      4 C4          0.0245   -2.0709   -1.2065 C.ar      1 <0>        -0.0679
      5 C5          0.0400   -2.7685   -0.0132 C.ar      1 <0>        -0.0755
      6 C6          0.0373   -2.0839    1.1877 C.ar      1 <0>        -0.0679
      7 C7          0.0229   -0.7016    1.1953 C.ar      1 <0>        -0.1275
      8 C8          0.0538   -2.8444    2.4886 C.3       1 <0>        -0.1289
      9 C9          0.0595   -4.2753   -0.0215 C.3       1 <0>        -0.0847
     10 C10         1.5084   -4.7666   -0.0322 C.3       1 <0>         0.0492
     11 C11         2.2161   -4.2406   -1.2825 C.3       1 <0>        -0.1408
     12 C12         2.2299   -4.2541    1.2159 C.3       1 <0>        -0.1408
     13 C13         1.5278   -6.2735   -0.0405 C.2       1 <0>        -0.0055
     14 N1          2.5660   -7.0622   -0.0452 N.2       1 <0>        -0.4405
     15 C14         2.3622   -8.3848   -0.0524 C.2       1 <0>        -0.0003
     16 C15         1.0408   -8.7877   -0.0541 C.2       1 <0>        -0.2632
     17 S1          0.2181   -7.3231   -0.0384 S.3       1 <0>         0.1529
     18 C16         3.4720   -9.3461   -0.0586 C.2       1 <0>         0.5494
     19 O1          4.6286   -8.9456   -0.0573 O.co2     1 <0>        -0.6663
     20 O2          3.2405  -10.5479   -0.0651 O.co2     1 <0>        -0.6855
     21 C17         0.0274   -2.8172   -2.5157 C.3       1 <0>        -0.1290
     22 H1          1.0042    1.8801    0.0026 H         1 <0>         0.0680
     23 H2         -0.5455    1.8639   -0.8728 H         1 <0>         0.0635
     24 H3         -0.5286    1.8543    0.9071 H         1 <0>         0.0634
     25 H4         -0.0064   -0.1436   -2.1312 H         1 <0>         0.1180
     26 H5          0.0245   -0.1667    2.1335 H         1 <0>         0.1180
     27 H6          1.0853   -3.0144    2.7970 H         1 <0>         0.0817
     28 H7         -0.4637   -2.2661    3.2541 H         1 <0>         0.0612
     29 H8         -0.4484   -3.8026    2.3557 H         1 <0>         0.0718
     30 H9         -0.4447   -4.6501    0.8693 H         1 <0>         0.0818
     31 H10        -0.4546   -4.6404   -0.9106 H         1 <0>         0.0818
     32 H11         2.2020   -3.1507   -1.2765 H         1 <0>         0.0665
     33 H12         3.2483   -4.5906   -1.2902 H         1 <0>         0.0662
     34 H13         1.7020   -4.6057   -2.1717 H         1 <0>         0.0585
     35 H14         1.7258   -4.6289    2.1066 H         1 <0>         0.0585
     36 H15         3.2622   -4.6041    1.2082 H         1 <0>         0.0662
     37 H16         2.2159   -3.1642    1.2219 H         1 <0>         0.0665
     38 H17         0.6386   -9.7901   -0.0595 H         1 <0>         0.1920
     39 H18         1.0557   -2.9832   -2.8370 H         1 <0>         0.0817
     40 H19        -0.4727   -3.7772   -2.3878 H         1 <0>         0.0718
     41 H20        -0.4985   -2.2310   -3.2693 H         1 <0>         0.0612
@<TRIPOS>BOND
     1    1    2 1
     2    1   22 1
     3    1   23 1
     4    1   24 1
     5    2    7 ar
     6    2    3 ar
     7    3    4 ar
     8    3   25 1
     9    4    5 ar
    10    4   21 1
    11    5    6 ar
    12    5    9 1
    13    6    7 ar
    14    6    8 1
    15    7   26 1
    16    8   27 1
    17    8   28 1
    18    8   29 1
    19    9   10 1
    20    9   30 1
    21    9   31 1
    22   10   11 1
    23   10   12 1
    24   10   13 1
    25   11   32 1
    26   11   33 1
    27   11   34 1
    28   12   35 1
    29   12   36 1
    30   12   37 1
    31   13   17 1
    32   13   14 2
    33   14   15 1
    34   15   16 2
    35   15   18 1
    36   16   17 1
    37   16   38 1
    38   18   19 2
    39   18   20 1
    40   21   39 1
    41   21   40 1
    42   21   41 1
@<TRIPOS>MOLECULE
ZINC01120418
   45    46     0     0     0
SMALL
USER_CHARGES
1-(2-sec-butylphenyl)-3-(4-sulfamoylphenyl)-thiourea
@<TRIPOS>ATOM
      1 C1         -0.2302   -0.5712    1.2135 C.3       1 <0>        -0.1557
      2 C2         -0.0527    0.9476    1.1604 C.3       1 <0>        -0.1168
      3 C3         -0.9856    1.6060    2.1787 C.3       1 <0>        -0.0520
      4 H1         -2.0100    1.2815    1.9959 H         1 <0>         0.0653
      5 C4         -0.5662    1.1986    3.5926 C.3       1 <0>        -0.1452
      6 C5         -0.9013    3.1044    2.0419 C.ar      1 <0>        -0.0747
      7 C6          0.2808    3.7594    2.3276 C.ar      1 <0>        -0.1151
      8 C7          0.3605    5.1335    2.1972 C.ar      1 <0>        -0.1041
      9 C8         -0.7453    5.8579    1.7905 C.ar      1 <0>        -0.1182
     10 C9         -1.9316    5.2098    1.5088 C.ar      1 <0>        -0.0683
     11 C10        -2.0135    3.8288    1.6338 C.ar      1 <0>         0.1091
     12 N1         -3.2139    3.1693    1.3496 N.pl3     1 <0>        -0.6144
     13 C11        -4.3845    3.6905    1.7674 C.2       1 <0>         0.5445
     14 S1         -4.4158    5.2243    2.5274 S.2       1 <0>        -0.5712
     15 N2         -5.5303    3.0044    1.5869 N.pl3     1 <0>        -0.6352
     16 C12        -6.7283    3.4906    2.1209 C.ar      1 <0>         0.1876
     17 C13        -6.7505    4.0342    3.3988 C.ar      1 <0>        -0.0962
     18 C14        -7.9338    4.5186    3.9209 C.ar      1 <0>        -0.0058
     19 C15        -9.0979    4.4519    3.1775 C.ar      1 <0>        -0.6739
     20 C16        -9.0803    3.9060    1.9071 C.ar      1 <0>        -0.0127
     21 C17        -7.8991    3.4255    1.3767 C.ar      1 <0>        -0.1450
     22 S2        -10.6069    5.0643    3.8503 S.o2      1 <0>         2.7020
     23 O1        -10.2519    6.0205    4.8397 O.2       1 <0>        -0.9588
     24 O2        -11.4431    5.3844    2.7469 O.2       1 <0>        -0.9597
     25 N3        -11.3340    3.8073    4.6462 N.pl3     1 <0>        -1.2481
     26 H2         -1.2636   -0.8247    0.9766 H         1 <0>         0.0511
     27 H3          0.4344   -1.0403    0.4880 H         1 <0>         0.0575
     28 H4          0.0119   -0.9306    2.2137 H         1 <0>         0.0594
     29 H5          0.9806    1.2011    1.3973 H         1 <0>         0.0694
     30 H6         -0.2948    1.3069    0.1603 H         1 <0>         0.0619
     31 H7          0.4582    1.5231    3.7754 H         1 <0>         0.0619
     32 H8         -1.2309    1.6677    4.3181 H         1 <0>         0.0560
     33 H9         -0.6272    0.1149    3.6916 H         1 <0>         0.0621
     34 H10         1.1448    3.1971    2.6497 H         1 <0>         0.1267
     35 H11         1.2870    5.6429    2.4176 H         1 <0>         0.1254
     36 H12        -0.6809    6.9316    1.6936 H         1 <0>         0.1286
     37 H13        -2.7950    5.7761    1.1920 H         1 <0>         0.1551
     38 H14        -3.2038    2.3368    0.8519 H         1 <0>         0.4078
     39 H15        -5.5243    2.1733    1.0866 H         1 <0>         0.4114
     40 H16        -5.8426    4.0823    3.9817 H         1 <0>         0.1539
     41 H17        -7.9508    4.9462    4.9125 H         1 <0>         0.1494
     42 H18        -9.9911    3.8557    1.3289 H         1 <0>         0.1491
     43 H19        -7.8858    2.9999    0.3842 H         1 <0>         0.1370
     44 H20       -11.8993    3.9820    5.4148 H         1 <0>         0.4223
     45 H21       -11.1944    2.8962    4.3439 H         1 <0>         0.4167
@<TRIPOS>BOND
     1    1    2 1
     2    1   26 1
     3    1   27 1
     4    1   28 1
     5    2    3 1
     6    2   29 1
     7    2   30 1
     8    3    4 1
     9    3    5 1
    10    3    6 1
    11    5   31 1
    12    5   32 1
    13    5   33 1
    14    6   11 ar
    15    6    7 ar
    16    7    8 ar
    17    7   34 1
    18    8    9 ar
    19    8   35 1
    20    9   10 ar
    21    9   36 1
    22   10   11 ar
    23   10   37 1
    24   11   12 1
    25   12   13 1
    26   12   38 1
    27   13   14 2
    28   13   15 1
    29   15   16 1
    30   15   39 1
    31   16   21 ar
    32   16   17 ar
    33   17   18 ar
    34   17   40 1
    35   18   19 ar
    36   18   41 1
    37   19   20 ar
    38   19   22 1
    39   20   21 ar
    40   20   42 1
    41   21   43 1
    42   22   23 2
    43   22   24 2
    44   22   25 1
    45   25   44 1
    46   25   45 1
@<TRIPOS>MOLECULE
ZINC37130813
   34    35     0     0     0
SMALL
USER_CHARGES

@<TRIPOS>ATOM
      1 C1         -0.0187    1.5258    0.0104 C.3       1 <0>        -0.1683
      2 C2          0.0021   -0.0041    0.0020 C.3       1 <0>         0.2366
      3 H1         -1.0205   -0.3814    0.0098 H         1 <0>         0.1053
      4 C3          0.7309   -0.5033    1.2229 C.2       1 <0>        -0.1510
      5 C4          0.2221   -0.9785    2.3854 C.2       1 <0>        -0.1369
      6 C5          1.0908   -1.3857    3.3812 C.2       1 <0>        -0.1362
      7 C6          2.4269   -1.2970    3.1640 C.2       1 <0>        -0.1178
      8 S1          2.4885   -0.6292    1.5095 S.3       1 <0>         0.0963
      9 Cl1         3.7369   -1.7278    4.2186 Cl        1 <0>         0.0211
     10 N1          0.6878   -0.4765   -1.2033 N.pl3     1 <0>        -0.7423
     11 C7         -0.0185   -0.6129   -2.4005 C.ar      1 <0>         0.2335
     12 C8         -1.3708   -0.2952   -2.4505 C.ar      1 <0>        -0.2028
     13 C9         -2.0702   -0.4303   -3.6340 C.ar      1 <0>        -0.0471
     14 C10        -1.4285   -0.8810   -4.7718 C.ar      1 <0>        -0.2055
     15 C11        -0.0769   -1.2004   -4.7286 C.ar      1 <0>         0.1797
     16 C12         0.6301   -1.0603   -3.5425 C.ar      1 <0>        -0.2067
     17 N2          0.5707   -1.6568   -5.8789 N.pl3     1 <0>        -1.0621
     18 S2          0.3206   -0.8944   -7.3275 S.o2      1 <0>         2.7991
     19 O1          1.1277   -1.5664   -8.2848 O.2       1 <0>        -0.9769
     20 O2         -1.0859   -0.7589   -7.4777 O.2       1 <0>        -0.9686
     21 N3          0.9313    0.6383   -7.1861 N.pl3     1 <0>        -1.2553
     22 H2          1.0039    1.9031    0.0027 H         1 <0>         0.0636
     23 H3         -0.5459    1.8868   -0.8726 H         1 <0>         0.0731
     24 H4         -0.5289    1.8773    0.9072 H         1 <0>         0.0717
     25 H5         -0.8462   -1.0380    2.5322 H         1 <0>         0.1448
     26 H6          0.7115   -1.7680    4.3173 H         1 <0>         0.1455
     27 H7          1.6324   -0.6946   -1.1699 H         1 <0>         0.4001
     28 H8         -1.8752    0.0573   -1.5631 H         1 <0>         0.1258
     29 H9         -3.1210   -0.1834   -3.6701 H         1 <0>         0.1308
     30 H10        -1.9783   -0.9855   -5.6955 H         1 <0>         0.1555
     31 H11         1.6819   -1.3033   -3.5075 H         1 <0>         0.1268
     32 H12         1.1669   -2.4203   -5.8292 H         1 <0>         0.4285
     33 H13         1.2854    1.0932   -7.9662 H         1 <0>         0.4229
     34 H14         0.9349    1.0812   -6.3231 H         1 <0>         0.4167
@<TRIPOS>BOND
     1    1    2 1
     2    1   22 1
     3    1   23 1
     4    1   24 1
     5    2    3 1
     6    2    4 1
     7    2   10 1
     8    4    8 1
     9    4    5 2
    10    5    6 1
    11    5   25 1
    12    6    7 2
    13    6   26 1
    14    7    8 1
    15    7    9 1
    16   10   11 1
    17   10   27 1
    18   11   16 ar
    19   11   12 ar
    20   12   13 ar
    21   12   28 1
    22   13   14 ar
    23   13   29 1
    24   14   15 ar
    25   14   30 1
    26   15   16 ar
    27   15   17 1
    28   16   31 1
    29   17   18 1
    30   17   32 1
    31   18   19 2
    32   18   20 2
    33   18   21 1
    34   21   33 1
    35   21   34 1
@<TRIPOS>MOLECULE
ZINC42860023
   46    47     0     0     0
SMALL
USER_CHARGES

@<TRIPOS>ATOM
      1 C1         -0.0187    1.5258    0.0104 C.3       1 <0>        -0.1562
      2 C2          0.0021   -0.0041    0.0020 C.3       1 <0>        -0.0826
      3 H1          0.5123   -0.3556   -0.8948 H         1 <0>         0.0726
      4 C3         -1.4333   -0.5336    0.0129 C.3       1 <0>        -0.1146
      5 C4         -2.1494   -0.0402    1.2717 C.3       1 <0>        -0.1232
      6 C5         -1.4095   -0.5471    2.5112 C.3       1 <0>        -0.1200
      7 C6          0.0259   -0.0175    2.5003 C.3       1 <0>        -0.1152
      8 C7          0.7421   -0.5109    1.2415 C.3       1 <0>        -0.0928
      9 H2          0.7568   -1.6008    1.2356 H         1 <0>         0.0757
     10 C8          2.1775    0.0187    1.2307 C.3       1 <0>         0.1260
     11 N1          2.9206   -0.5616    2.3520 N.pl3     1 <0>        -0.7414
     12 C9          4.2648   -0.2239    2.5505 C.ar      1 <0>         0.2074
     13 C10         4.8931    0.6639    1.6905 C.ar      1 <0>        -0.1808
     14 C11         6.2205    0.9964    1.8887 C.ar      1 <0>        -0.0177
     15 C12         6.9251    0.4459    2.9432 C.ar      1 <0>        -0.6849
     16 C13         6.3065   -0.4403    3.8056 C.ar      1 <0>        -0.0638
     17 C14         4.9742   -0.7752    3.6174 C.ar      1 <0>         0.1309
     18 N2          4.3443   -1.6683    4.4927 N.pl3     1 <0>        -0.8835
     19 S1          8.6165    0.8744    3.1883 S.o2      1 <0>         2.6999
     20 O1          9.2041   -0.1932    3.9192 O.2       1 <0>        -0.9621
     21 O2          9.1148    1.2992    1.9272 O.2       1 <0>        -0.9633
     22 N3          8.6470    2.2001    4.1802 N.pl3     1 <0>        -1.1225
     23 C15         8.1659    2.0939    5.5599 C.3       1 <0>         0.0843
     24 H3          1.0039    1.9031    0.0027 H         1 <0>         0.0560
     25 H4         -0.5459    1.8868   -0.8726 H         1 <0>         0.0563
     26 H5         -0.5289    1.8773    0.9072 H         1 <0>         0.0625
     27 H6         -1.9605   -0.1726   -0.8702 H         1 <0>         0.0647
     28 H7         -1.4185   -1.6235    0.0069 H         1 <0>         0.0618
     29 H8         -2.1642    1.0497    1.2777 H         1 <0>         0.0658
     30 H9         -3.1720   -0.4175    1.2794 H         1 <0>         0.0613
     31 H10        -1.9196   -0.1955    3.4080 H         1 <0>         0.0621
     32 H11        -1.3947   -1.6369    2.5052 H         1 <0>         0.0608
     33 H12         0.0111    1.0724    2.5063 H         1 <0>         0.0687
     34 H13         0.5531   -0.3786    3.3834 H         1 <0>         0.0579
     35 H14         2.6597   -0.2580    0.2932 H         1 <0>         0.0630
     36 H15         2.1649    1.1044    1.3262 H         1 <0>         0.0669
     37 H16         2.4813   -1.1798    2.9568 H         1 <0>         0.3956
     38 H17         4.3457    1.0956    0.8656 H         1 <0>         0.1303
     39 H18         6.7084    1.6878    1.2177 H         1 <0>         0.1364
     40 H19         6.8600   -0.8688    4.6281 H         1 <0>         0.1367
     41 H20         3.4132   -1.9044    4.3575 H         1 <0>         0.3911
     42 H21         4.8389   -2.0509    5.2342 H         1 <0>         0.4023
     43 H22         8.9833    3.0470    3.8477 H         1 <0>         0.4183
     44 H23         7.1189    1.7909    5.5573 H         1 <0>         0.0599
     45 H24         8.7577    1.3512    6.0949 H         1 <0>         0.0676
     46 H25         8.2632    3.0606    6.0541 H         1 <0>         0.0818
@<TRIPOS>BOND
     1    1    2 1
     2    1   24 1
     3    1   25 1
     4    1   26 1
     5    2    3 1
     6    2    8 1
     7    2    4 1
     8    4    5 1
     9    4   27 1
    10    4   28 1
    11    5    6 1
    12    5   29 1
    13    5   30 1
    14    6    7 1
    15    6   31 1
    16    6   32 1
    17    7    8 1
    18    7   33 1
    19    7   34 1
    20    8    9 1
    21    8   10 1
    22   10   11 1
    23   10   35 1
    24   10   36 1
    25   11   12 1
    26   11   37 1
    27   12   17 ar
    28   12   13 ar
    29   13   14 ar
    30   13   38 1
    31   14   15 ar
    32   14   39 1
    33   15   16 ar
    34   15   19 1
    35   16   17 ar
    36   16   40 1
    37   17   18 1
    38   18   41 1
    39   18   42 1
    40   19   20 2
    41   19   21 2
    42   19   22 1
    43   22   23 1
    44   22   43 1
    45   23   44 1
    46   23   45 1
    47   23   46 1
@<TRIPOS>MOLECULE
ZINC51089920
   33    34     0     0     0
SMALL
USER_CHARGES

@<TRIPOS>ATOM
      1 C1          0.1532    1.3730    0.6368 C.ar      1 <0>        -0.0889
      2 C2          1.1719    2.0901    0.0362 C.ar      1 <0>        -0.1162
      3 C3          2.2145    1.4294   -0.5853 C.ar      1 <0>        -0.0989
      4 C4          2.2413    0.0420   -0.6080 C.ar      1 <0>        -0.1253
      5 C5          1.2133   -0.6812   -0.0019 C.ar      1 <0>         0.1792
      6 C6          0.1714   -0.0092    0.6192 C.ar      1 <0>        -0.1169
      7 N1          1.2335   -2.0814   -0.0212 N.am      1 <0>        -0.6601
      8 C7          0.0822   -2.7735    0.0878 C.2       1 <0>         0.5651
      9 O1         -0.9813   -2.1855    0.1016 O.2       1 <0>        -0.5021
     10 C8          0.1131   -4.2509    0.1907 C.ar      1 <0>        -0.0472
     11 C9          1.3283   -4.9467    0.1825 C.ar      1 <0>        -0.2075
     12 C10         1.3160   -6.3225    0.2808 C.ar      1 <0>         0.1544
     13 N2          0.1805   -6.9864    0.3818 N.ar      1 <0>        -0.5102
     14 C11        -0.9913   -6.3718    0.3937 C.ar      1 <0>         0.4102
     15 C12        -1.0674   -4.9857    0.3043 C.ar      1 <0>        -0.1740
     16 N3         -2.1586   -7.1191    0.5016 N.pl3     1 <0>        -0.5707
     17 N4         -2.0921   -8.4803    0.5947 N.3       1 <0>        -0.5963
     18 S1          3.5689   -0.8036   -1.4000 S.3       1 <0>        -0.1090
     19 C13         4.6291    0.5301   -2.0228 C.3       1 <0>         0.2809
     20 F1          3.9027    1.3247   -2.9162 F         1 <0>        -0.1773
     21 F2          5.0687    1.3152   -0.9516 F         1 <0>        -0.1782
     22 H1         -0.6568    1.8945    1.1250 H         1 <0>         0.1345
     23 H2          1.1524    3.1698    0.0526 H         1 <0>         0.1325
     24 H3          3.0082    1.9926   -1.0536 H         1 <0>         0.1306
     25 H4         -0.6260   -0.5657    1.0893 H         1 <0>         0.1542
     26 H5          2.0762   -2.5530   -0.1131 H         1 <0>         0.4136
     27 H6          2.2635   -4.4128    0.0999 H         1 <0>         0.1350
     28 H7          2.2502   -6.8645    0.2746 H         1 <0>         0.1660
     29 H8         -2.0251   -4.4867    0.3185 H         1 <0>         0.1460
     30 H9         -3.0204   -6.6739    0.5109 H         1 <0>         0.4138
     31 H10        -1.5128   -8.7617    1.3714 H         1 <0>         0.3445
     32 H11        -3.0143   -8.8833    0.6667 H         1 <0>         0.3565
     33 H12         5.4897    0.1006   -2.5357 H         1 <0>         0.1618
@<TRIPOS>BOND
     1    1    6 ar
     2    1    2 ar
     3    1   22 1
     4    2    3 ar
     5    2   23 1
     6    3    4 ar
     7    3   24 1
     8    4    5 ar
     9    4   18 1
    10    5    6 ar
    11    5    7 1
    12    6   25 1
    13    7    8 am
    14    7   26 1
    15    8    9 2
    16    8   10 1
    17   10   15 ar
    18   10   11 ar
    19   11   12 ar
    20   11   27 1
    21   12   13 ar
    22   12   28 1
    23   13   14 ar
    24   14   15 ar
    25   14   16 1
    26   15   29 1
    27   16   17 1
    28   16   30 1
    29   17   31 1
    30   17   32 1
    31   18   19 1
    32   19   20 1
    33   19   21 1
    34   19   33 1
@<TRIPOS>MOLECULE
ZINC61120878
   31    32     0     0     0
SMALL
USER_CHARGES

@<TRIPOS>ATOM
      1 C1          0.6312   -0.4095    2.1081 C.ar      1 <0>        -0.2135
      2 C2          1.3660    0.5392    1.4245 C.ar      1 <0>         0.0302
      3 C3          2.7363    0.3991    1.3030 C.ar      1 <0>        -0.7348
      4 C4          3.3758   -0.6904    1.8654 C.ar      1 <0>         0.0291
      5 C5          2.6471   -1.6428    2.5504 C.ar      1 <0>        -0.2042
      6 C6          1.2704   -1.5052    2.6744 C.ar      1 <0>         0.2771
      7 N1          0.5304   -2.4664    3.3668 N.pl3     1 <0>        -0.5854
      8 N2          1.1604   -3.5432    3.9231 N.3       1 <0>        -0.6055
      9 S1          3.6698    1.6113    0.4289 S.o2      1 <0>         2.6907
     10 O1          4.7957    0.9396   -0.1190 O.2       1 <0>        -0.9473
     11 O2          2.7467    2.3321   -0.3759 O.2       1 <0>        -0.9479
     12 N3          4.2556    2.6802    1.5499 N.pl3     1 <0>        -1.0644
     13 C7          3.3707    3.4459    2.3149 C.ar      1 <0>         0.1797
     14 C8          2.7131    4.5267    1.7425 C.ar      1 <0>        -0.1243
     15 C9          1.8374    5.2833    2.5005 C.ar      1 <0>         0.1126
     16 C10         1.6162    4.9628    3.8308 C.ar      1 <0>         0.0412
     17 C11         2.2723    3.8845    4.4036 C.ar      1 <0>         0.1080
     18 C12         3.1442    3.1228    3.6463 C.ar      1 <0>        -0.1294
     19 F1          2.0559    3.5738    5.7005 F         1 <0>        -0.1134
     20 F2          0.7607    5.7025    4.5700 F         1 <0>        -0.1115
     21 F3          1.1978    6.3351    1.9440 F         1 <0>        -0.1101
     22 H1         -0.4384   -0.2974    2.2062 H         1 <0>         0.1316
     23 H2          0.8697    1.3913    0.9840 H         1 <0>         0.1412
     24 H3          4.4461   -0.7968    1.7687 H         1 <0>         0.1393
     25 H4          3.1470   -2.4937    2.9891 H         1 <0>         0.1370
     26 H5         -0.4309   -2.3692    3.4528 H         1 <0>         0.4081
     27 H6          1.8890   -3.2487    4.5560 H         1 <0>         0.3396
     28 H7          0.5001   -4.1480    4.3881 H         1 <0>         0.3632
     29 H8          5.2127    2.7750    1.6757 H         1 <0>         0.4325
     30 H9          2.8856    4.7768    0.7061 H         1 <0>         0.1690
     31 H10         3.6516    2.2797    4.0915 H         1 <0>         0.1617
@<TRIPOS>BOND
     1    1    6 ar
     2    1    2 ar
     3    1   22 1
     4    2    3 ar
     5    2   23 1
     6    3    4 ar
     7    3    9 1
     8    4    5 ar
     9    4   24 1
    10    5    6 ar
    11    5   25 1
    12    6    7 1
    13    7    8 1
    14    7   26 1
    15    8   27 1
    16    8   28 1
    17    9   10 2
    18    9   11 2
    19    9   12 1
    20   12   13 1
    21   12   29 1
    22   13   18 ar
    23   13   14 ar
    24   14   15 ar
    25   14   30 1
    26   15   16 ar
    27   15   21 1
    28   16   17 ar
    29   16   20 1
    30   17   18 ar
    31   17   19 1
    32   18   31 1
@<TRIPOS>MOLECULE
ZINC06450523
   41    44     0     0     0
SMALL
USER_CHARGES
2-[[4-(6-methylbenzothiophen-2-yl)phenyl]carbamoyl]cyclopropane-1-carboxylic acid
@<TRIPOS>ATOM
      1 C1          5.2986    5.6703    0.0315 C.3       1 <0>        -0.1118
      2 C2          6.0179    4.3907   -0.3095 C.ar      1 <0>        -0.0710
      3 C3          7.0339    4.3906   -1.2562 C.ar      1 <0>        -0.1223
      4 C4          7.6965    3.2510   -1.5875 C.ar      1 <0>        -0.0752
      5 C5          7.3677    2.0178   -0.9728 C.ar      1 <0>        -0.0828
      6 C6          7.9571    0.7087   -1.1941 C.2       1 <0>        -0.1546
      7 C7          7.4883   -0.3508   -0.4919 C.2       1 <0>        -0.0541
      8 S1          6.2072    0.3595    0.5240 S.3       1 <0>         0.0405
      9 C8          6.3309    2.0457   -0.0136 C.ar      1 <0>        -0.1163
     10 C9          5.6675    3.2089    0.3132 C.ar      1 <0>        -0.0775
     11 C10         7.9330   -1.7593   -0.5534 C.ar      1 <0>        -0.0553
     12 C11         8.9591   -2.1315   -1.4237 C.ar      1 <0>        -0.0684
     13 C12         9.3739   -3.4447   -1.4758 C.ar      1 <0>        -0.1474
     14 C13         8.7655   -4.3999   -0.6696 C.ar      1 <0>         0.1896
     15 C14         7.7403   -4.0334    0.1945 C.ar      1 <0>        -0.1243
     16 C15         7.3237   -2.7211    0.2546 C.ar      1 <0>        -0.0763
     17 N1          9.1854   -5.7322   -0.7285 N.am      1 <0>        -0.6733
     18 C16         8.2978   -6.7277   -0.5348 C.2       1 <0>         0.5689
     19 O1          7.1194   -6.4724   -0.4034 O.2       1 <0>        -0.5048
     20 C17         8.7694   -8.1580   -0.4815 C.3       1 <0>        -0.1856
     21 H1          9.5044   -8.3822    0.2915 H         1 <0>         0.1235
     22 C18         7.7556   -9.2496   -0.8303 C.3       1 <0>        -0.1297
     23 C19         8.8845   -8.9138   -1.8069 C.3       1 <0>        -0.1659
     24 H2          9.6955   -9.6353   -1.9060 H         1 <0>         0.1084
     25 C20         8.5176   -8.1709   -3.0656 C.2       1 <0>         0.4778
     26 O2          7.6200   -7.3621   -3.0500 O.co2     1 <0>        -0.6155
     27 H3          5.8109    6.1665    0.8559 H         1 <0>         0.0724
     28 H4          5.2913    6.3261   -0.8391 H         1 <0>         0.0687
     29 H5          4.2734    5.4439    0.3245 H         1 <0>         0.0681
     30 H6          7.3038    5.3175   -1.7404 H         1 <0>         0.1250
     31 H7          8.4821    3.2860   -2.3278 H         1 <0>         0.1250
     32 H8          8.7572    0.5818   -1.9083 H         1 <0>         0.1385
     33 H9          4.8787    3.1961    1.0508 H         1 <0>         0.1291
     34 H10         9.4297   -1.3906   -2.0530 H         1 <0>         0.1278
     35 H11        10.1700   -3.7327   -2.1464 H         1 <0>         0.1325
     36 H12         7.2694   -4.7779    0.8193 H         1 <0>         0.1401
     37 H13         6.5271   -2.4370    0.9262 H         1 <0>         0.1244
     38 H14        10.1156   -5.9401   -0.9087 H         1 <0>         0.4104
     39 H15         7.8240  -10.1921   -0.2869 H         1 <0>         0.0967
     40 H16         6.7475   -8.9333   -1.0978 H         1 <0>         0.1072
     41 O3          9.1878   -8.4076   -4.2042 O.co2     1 <0>        -0.7623
@<TRIPOS>BOND
     1    1    2 1
     2    1   27 1
     3    1   28 1
     4    1   29 1
     5    2   10 ar
     6    2    3 ar
     7    3    4 ar
     8    3   30 1
     9    4    5 ar
    10    4   31 1
    11    5    9 ar
    12    5    6 1
    13    6    7 2
    14    6   32 1
    15    7    8 1
    16    7   11 1
    17    8    9 1
    18    9   10 ar
    19   10   33 1
    20   11   16 ar
    21   11   12 ar
    22   12   13 ar
    23   12   34 1
    24   13   14 ar
    25   13   35 1
    26   14   15 ar
    27   14   17 1
    28   15   16 ar
    29   15   36 1
    30   16   37 1
    31   17   18 am
    32   17   38 1
    33   18   19 2
    34   18   20 1
    35   20   21 1
    36   20   23 1
    37   20   22 1
    38   22   23 1
    39   22   39 1
    40   22   40 1
    41   23   24 1
    42   23   25 1
    43   25   26 2
    44   25   41 1
@<TRIPOS>MOLECULE
ZINC05021641
   44    45     0     0     0
SMALL
USER_CHARGES

@<TRIPOS>ATOM
      1 C1          0.3720   -0.8716    1.1794 C.3       1 <0>        -0.1483
      2 C2          0.0034    0.0213   -0.0072 C.3       1 <0>        -0.0856
      3 C3          0.7084   -0.4715   -1.2446 C.ar      1 <0>        -0.0915
      4 C4          1.9650    0.0113   -1.5612 C.ar      1 <0>        -0.0980
      5 C5          2.6138   -0.4383   -2.6945 C.ar      1 <0>        -0.1152
      6 C6          2.0030   -1.3765   -3.5163 C.ar      1 <0>         0.1354
      7 C7          0.7413   -1.8596   -3.1954 C.ar      1 <0>        -0.1377
      8 C8          0.0998   -1.4096   -2.0581 C.ar      1 <0>        -0.0985
      9 N1          2.6574   -1.8336   -4.6655 N.am      1 <0>        -0.6637
     10 C9          4.0002   -1.9490   -4.6755 C.2       1 <0>         0.5329
     11 O1          4.6337   -1.7488   -3.6607 O.2       1 <0>        -0.5012
     12 C10         4.7146   -2.3266   -5.9475 C.3       1 <0>        -0.1421
     13 S1          6.5007   -2.3997   -5.6391 S.3       1 <0>         0.0787
     14 C11         7.1849   -2.8470   -7.2000 C.2       1 <0>         0.3512
     15 N2          8.5330   -2.9966   -7.3219 N.am      1 <0>        -0.6138
     16 H1          9.1096   -2.8575   -6.5544 H         1 <0>         0.4215
     17 C12         9.0640   -3.3396   -8.5150 C.2       1 <0>         0.5332
     18 O2         10.2695   -3.4783   -8.6421 O.2       1 <0>        -0.5271
     19 C13         8.2014   -3.5344   -9.6078 C.2       1 <0>        -0.2561
     20 C14         6.8583   -3.3705   -9.4262 C.2       1 <0>         0.1861
     21 N3          6.3822   -3.0366   -8.2295 N.2       1 <0>        -0.5430
     22 C15         5.9129   -3.5731  -10.5821 C.3       1 <0>        -0.1101
     23 C16         8.7504   -3.9175  -10.9580 C.3       1 <0>        -0.0583
     24 C17         9.1753   -2.6561  -11.7124 C.3       1 <0>        -0.1463
     25 H2          0.0665   -1.8970    0.9712 H         1 <0>         0.0556
     26 H3          1.4499   -0.8386    1.3379 H         1 <0>         0.0562
     27 H4         -0.1380   -0.5152    2.0744 H         1 <0>         0.0588
     28 H5         -1.0745   -0.0117   -0.1657 H         1 <0>         0.0723
     29 H6          0.3089    1.0467    0.2010 H         1 <0>         0.0725
     30 H7          2.4394    0.7409   -0.9217 H         1 <0>         0.1264
     31 H8          3.5949   -0.0603   -2.9416 H         1 <0>         0.1345
     32 H9          0.2635   -2.5890   -3.8327 H         1 <0>         0.1268
     33 H10        -0.8797   -1.7880   -1.8057 H         1 <0>         0.1271
     34 H11         2.1447   -2.0675   -5.4550 H         1 <0>         0.4152
     35 H12         4.3640   -3.3019   -6.2853 H         1 <0>         0.1353
     36 H13         4.5087   -1.5807   -6.7151 H         1 <0>         0.1362
     37 H14         5.5969   -4.6158  -10.6146 H         1 <0>         0.0875
     38 H15         5.0401   -2.9328  -10.4541 H         1 <0>         0.0818
     39 H16         6.4177   -3.3173  -11.5136 H         1 <0>         0.0861
     40 H17         9.6131   -4.5708  -10.8274 H         1 <0>         0.0783
     41 H18         7.9819   -4.4401  -11.5277 H         1 <0>         0.0771
     42 H19         8.3126   -2.0029  -11.8430 H         1 <0>         0.0522
     43 H20         9.9437   -2.1336  -11.1426 H         1 <0>         0.0562
     44 H21         9.5724   -2.9332  -12.6889 H         1 <0>         0.0613
@<TRIPOS>BOND
     1    1    2 1
     2    1   25 1
     3    1   26 1
     4    1   27 1
     5    2    3 1
     6    2   28 1
     7    2   29 1
     8    3    8 ar
     9    3    4 ar
    10    4    5 ar
    11    4   30 1
    12    5    6 ar
    13    5   31 1
    14    6    7 ar
    15    6    9 1
    16    7    8 ar
    17    7   32 1
    18    8   33 1
    19    9   10 am
    20    9   34 1
    21   10   11 2
    22   10   12 1
    23   12   13 1
    24   12   35 1
    25   12   36 1
    26   13   14 1
    27   14   21 2
    28   14   15 1
    29   15   16 1
    30   15   17 am
    31   17   18 2
    32   17   19 1
    33   19   20 2
    34   19   23 1
    35   20   21 1
    36   20   22 1
    37   22   37 1
    38   22   38 1
    39   22   39 1
    40   23   24 1
    41   23   40 1
    42   23   41 1
    43   24   42 1
    44   24   43 1
    45   24   44 1
@<TRIPOS>MOLECULE
ZINC12476389
   41    44     0     0     0
SMALL
USER_CHARGES

@<TRIPOS>ATOM
      1 C1          8.1602    1.9884   -6.0158 C.ar      1 <0>        -0.1180
      2 C2          9.3305    1.5085   -5.4545 C.ar      1 <0>        -0.1201
      3 C3          9.2813    0.6687   -4.3615 C.ar      1 <0>        -0.1059
      4 C4          8.0462    0.3027   -3.8212 C.ar      1 <0>        -0.0030
      5 C5          6.8688    0.7909   -4.3930 C.ar      1 <0>        -0.0895
      6 C6          6.9332    1.6300   -5.4857 C.ar      1 <0>        -0.1183
      7 C7          7.9854   -0.5960   -2.6520 C.2       1 <0>         0.0051
      8 C8          7.5211   -1.9029   -2.6320 C.2       1 <0>         0.0618
      9 N1          7.6382   -2.3590   -1.3770 N.2       1 <0>        -0.3914
     10 C9          8.1467   -1.4182   -0.6128 C.2       1 <0>         0.2608
     11 N2          8.3830   -0.3057   -1.3699 N.pl3     1 <0>        -0.5578
     12 H1          8.7588    0.5329   -1.0595 H         1 <0>         0.4146
     13 C10         8.4241   -1.5455    0.8310 C.ar      1 <0>        -0.0182
     14 C11         8.6947   -0.4118    1.5966 C.ar      1 <0>        -0.1154
     15 C12         8.9530   -0.5361    2.9462 C.ar      1 <0>        -0.1414
     16 C13         8.9461   -1.7829    3.5516 C.ar      1 <0>        -0.1141
     17 C14         8.6810   -2.9173    2.8137 C.ar      1 <0>        -0.1080
     18 C15         8.4117   -2.8137    1.4474 C.ar      1 <0>        -0.0629
     19 C16         8.1219   -4.0204    0.6551 C.2       1 <0>         0.5363
     20 O1          9.0275   -4.7847    0.3512 O.co2     1 <0>        -0.6931
     21 O2          6.9755   -4.2588    0.3008 O.co2     1 <0>        -0.6552
     22 C17         6.9901   -2.6591   -3.7903 C.ar      1 <0>         0.0095
     23 C18         7.6542   -2.6198   -5.0159 C.ar      1 <0>        -0.1013
     24 C19         7.1552   -3.3265   -6.0908 C.ar      1 <0>        -0.1265
     25 C20         5.9985   -4.0730   -5.9545 C.ar      1 <0>        -0.1248
     26 C21         5.3350   -4.1156   -4.7413 C.ar      1 <0>        -0.1231
     27 C22         5.8275   -3.4176   -3.6576 C.ar      1 <0>        -0.0814
     28 H2          8.2048    2.6492   -6.8688 H         1 <0>         0.1207
     29 H3         10.2847    1.7920   -5.8735 H         1 <0>         0.1227
     30 H4         10.1955    0.2946   -3.9247 H         1 <0>         0.1220
     31 H5          5.9105    0.5118   -3.9805 H         1 <0>         0.1245
     32 H6          6.0238    2.0085   -5.9286 H         1 <0>         0.1235
     33 H7          8.7025    0.5636    1.1330 H         1 <0>         0.1093
     34 H8          9.1624    0.3446    3.5352 H         1 <0>         0.1174
     35 H9          9.1502   -1.8666    4.6089 H         1 <0>         0.1179
     36 H10         8.6776   -3.8850    3.2931 H         1 <0>         0.1227
     37 H11         8.5571   -2.0370   -5.1236 H         1 <0>         0.1163
     38 H12         7.6684   -3.2965   -7.0406 H         1 <0>         0.1175
     39 H13         5.6117   -4.6245   -6.7987 H         1 <0>         0.1164
     40 H14         4.4322   -4.6998   -4.6410 H         1 <0>         0.1207
     41 H15         5.3111   -3.4552   -2.7098 H         1 <0>         0.1301
@<TRIPOS>BOND
     1    1    6 ar
     2    1    2 ar
     3    1   28 1
     4    2    3 ar
     5    2   29 1
     6    3    4 ar
     7    3   30 1
     8    4    5 ar
     9    4    7 1
    10    5    6 ar
    11    5   31 1
    12    6   32 1
    13    7   11 1
    14    7    8 2
    15    8    9 1
    16    8   22 1
    17    9   10 2
    18   10   11 1
    19   10   13 1
    20   11   12 1
    21   13   18 ar
    22   13   14 ar
    23   14   15 ar
    24   14   33 1
    25   15   16 ar
    26   15   34 1
    27   16   17 ar
    28   16   35 1
    29   17   18 ar
    30   17   36 1
    31   18   19 1
    32   19   20 2
    33   19   21 1
    34   22   27 ar
    35   22   23 ar
    36   23   24 ar
    37   23   37 1
    38   24   25 ar
    39   24   38 1
    40   25   26 ar
    41   25   39 1
    42   26   27 ar
    43   26   40 1
    44   27   41 1
@<TRIPOS>MOLECULE
ZINC44547322
   50    50     0     0     0
SMALL
USER_CHARGES

@<TRIPOS>ATOM
      1 C1          0.7884    2.4296   -0.3068 C.3       1 <0>        -0.1324
      2 C2          0.9305    1.0180    0.2013 C.2       1 <0>        -0.0490
      3 C3         -0.1498    0.3342    0.4038 C.2       1 <0>        -0.1261
      4 C4         -0.1684   -1.0760    0.9167 C.3       1 <0>        -0.0161
      5 C5          1.2136   -1.7133    0.7571 C.3       1 <0>        -0.1052
      6 C6          2.2609   -0.7507    1.3313 C.3       1 <0>        -0.1162
      7 C7          2.3158    0.4905    0.4354 C.3       1 <0>        -0.0783
      8 C8         -1.1961   -1.8893    0.1271 C.3       1 <0>        -0.1508
      9 C9         -0.5575   -1.0724    2.3964 C.3       1 <0>        -0.1344
     10 C10        -1.4709    0.9955    0.1065 C.3       1 <0>         0.2063
     11 H1         -1.3091    2.0533   -0.1009 H         1 <0>         0.1102
     12 C11        -2.1119    0.3290   -1.1125 C.3       1 <0>        -0.2232
     13 C12        -1.1570    0.3869   -2.2769 C.2       1 <0>         0.4977
     14 O1         -0.0253    0.8114   -2.1166 O.co2     1 <0>        -0.6723
     15 O2         -1.5160    0.0093   -3.3791 O.co2     1 <0>        -0.7082
     16 N1         -2.3587    0.8548    1.2633 N.am      1 <0>        -0.7003
     17 C13        -2.9421    1.9441    1.8014 C.2       1 <0>         0.6443
     18 O3         -2.8206    3.0267    1.2633 O.2       1 <0>        -0.5706
     19 O4         -3.6595    1.8326    2.9353 O.3       1 <0>        -0.3661
     20 C14        -4.2498    3.0280    3.4496 C.3       1 <0>         0.1347
     21 C15        -5.2105    3.6101    2.4108 C.3       1 <0>        -0.1858
     22 C16        -5.0195    2.7057    4.7320 C.3       1 <0>        -0.1381
     23 C17        -3.1515    4.0480    3.7566 C.3       1 <0>        -0.1847
     24 H2          1.7749    2.8839   -0.3981 H         1 <0>         0.0349
     25 H3          0.3023    2.4174   -1.2824 H         1 <0>         0.1160
     26 H4          0.1851    3.0085    0.3925 H         1 <0>         0.0437
     27 H5          1.2467   -2.6575    1.3007 H         1 <0>         0.0553
     28 H6          1.4168   -1.8879   -0.2995 H         1 <0>         0.0674
     29 H7          1.9783   -0.4637    2.3442 H         1 <0>         0.0596
     30 H8          3.2368   -1.2360    1.3435 H         1 <0>         0.0557
     31 H9          2.7698    0.2305   -0.5208 H         1 <0>         0.0732
     32 H10         2.9174    1.2584    0.9218 H         1 <0>         0.0589
     33 H11        -0.9309   -1.8815   -0.9302 H         1 <0>         0.0698
     34 H12        -1.2046   -2.9164    0.4920 H         1 <0>         0.0444
     35 H13        -2.1849   -1.4494    0.2569 H         1 <0>         0.0643
     36 H14        -1.6396   -0.9785    2.4873 H         1 <0>         0.0482
     37 H15        -0.2335   -2.0044    2.8595 H         1 <0>         0.0511
     38 H16        -0.0765   -0.2318    2.8965 H         1 <0>         0.0549
     39 H17        -2.3390   -0.7114   -0.8802 H         1 <0>         0.0902
     40 H18        -3.0322    0.8529   -1.3709 H         1 <0>         0.0521
     41 H19        -2.5267   -0.0223    1.6419 H         1 <0>         0.3969
     42 H20        -5.9930    2.8835    2.1921 H         1 <0>         0.0569
     43 H21        -5.6609    4.5219    2.8032 H         1 <0>         0.0648
     44 H22        -4.6622    3.8397    1.4972 H         1 <0>         0.0906
     45 H23        -4.3351    2.2910    5.4721 H         1 <0>         0.0641
     46 H24        -5.4699    3.6175    5.1244 H         1 <0>         0.0759
     47 H25        -5.8020    1.9791    4.5133 H         1 <0>         0.0641
     48 H26        -2.6032    4.2775    2.8430 H         1 <0>         0.0904
     49 H27        -3.6019    4.9598    4.1490 H         1 <0>         0.0645
     50 H28        -2.4671    3.6332    4.4967 H         1 <0>         0.0566
@<TRIPOS>BOND
     1    1    2 1
     2    1   24 1
     3    1   25 1
     4    1   26 1
     5    2    7 1
     6    2    3 2
     7    3    4 1
     8    3   10 1
     9    4    5 1
    10    4    8 1
    11    4    9 1
    12    5    6 1
    13    5   27 1
    14    5   28 1
    15    6    7 1
    16    6   29 1
    17    6   30 1
    18    7   31 1
    19    7   32 1
    20    8   33 1
    21    8   34 1
    22    8   35 1
    23    9   36 1
    24    9   37 1
    25    9   38 1
    26   10   11 1
    27   10   12 1
    28   10   16 1
    29   12   13 1
    30   12   39 1
    31   12   40 1
    32   13   14 2
    33   13   15 1
    34   16   17 am
    35   16   41 1
    36   17   18 2
    37   17   19 1
    38   19   20 1
    39   20   21 1
    40   20   22 1
    41   20   23 1
    42   21   42 1
    43   21   43 1
    44   21   44 1
    45   22   45 1
    46   22   46 1
    47   22   47 1
    48   23   48 1
    49   23   49 1
    50   23   50 1
@<TRIPOS>MOLECULE
ZINC20285939
   28    29     0     0     0
SMALL
USER_CHARGES

@<TRIPOS>ATOM
      1 C1         -1.7079    1.2682    0.5929 C.3       1 <0>        -0.1823
      2 C2         -1.4740   -0.2406    0.4948 C.3       1 <0>         0.1066
      3 H1         -2.4190   -0.7418    0.2851 H         1 <0>         0.0523
      4 C3         -0.4815   -0.5307   -0.6329 C.3       1 <0>         0.0729
      5 N1         -0.3485   -1.9794   -0.8057 N.2       1 <0>        -0.5141
      6 C4         -0.7424   -2.5416   -1.9112 C.2       1 <0>         0.4709
      7 N2         -1.3127   -2.1964   -3.1416 N.2       1 <0>        -0.6888
      8 C5         -1.5384   -3.2267   -4.0027 C.2       1 <0>         0.5472
      9 S1         -0.8325   -4.1525   -2.6583 S.3       1 <0>        -0.4679
     10 N3         -2.0412   -3.4387   -5.2529 N.2       1 <0>        -0.5431
     11 C6         -2.2605   -4.7435   -5.7066 C.ar      1 <0>         0.1937
     12 C7         -2.4030   -5.7821   -4.7959 C.ar      1 <0>        -0.1832
     13 C8         -2.6195   -7.0704   -5.2475 C.ar      1 <0>         0.0055
     14 C9         -2.6938   -7.3258   -6.6059 C.ar      1 <0>        -0.1593
     15 C10        -2.5524   -6.2939   -7.5150 C.ar      1 <0>        -0.0744
     16 C11        -2.3418   -5.0024   -7.0697 C.ar      1 <0>        -0.0574
     17 Cl1        -2.1721   -3.7062   -8.2120 Cl        1 <0>        -0.0638
     18 Cl2        -2.7978   -8.3695   -4.1099 Cl        1 <0>        -0.0796
     19 O1         -0.9439   -0.7218    1.7315 O.3       1 <0>        -0.5546
     20 H2         -0.7630    1.7695    0.8026 H         1 <0>         0.0632
     21 H3         -2.1123    1.6353   -0.3505 H         1 <0>         0.0676
     22 H4         -2.4150    1.4749    1.3962 H         1 <0>         0.0570
     23 H5         -0.8443   -0.0860   -1.5595 H         1 <0>         0.0718
     24 H6          0.4894   -0.1042   -0.3809 H         1 <0>         0.0809
     25 H7         -2.3444   -5.5835   -3.7360 H         1 <0>         0.1433
     26 H8         -2.8624   -8.3333   -6.9563 H         1 <0>         0.1323
     27 H9         -2.6105   -6.4965   -8.5743 H         1 <0>         0.1365
     28 H10        -1.5216   -0.5714    2.4922 H         1 <0>         0.3670
@<TRIPOS>BOND
     1    1    2 1
     2    1   20 1
     3    1   21 1
     4    1   22 1
     5    2    3 1
     6    2    4 1
     7    2   19 1
     8    4    5 1
     9    4   23 1
    10    4   24 1
    11    5    6 2
    12    6    9 1
    13    6    7 1
    14    7    8 2
    15    8    9 1
    16    8   10 1
    17   10   11 1
    18   11   16 ar
    19   11   12 ar
    20   12   13 ar
    21   12   25 1
    22   13   14 ar
    23   13   18 1
    24   14   15 ar
    25   14   26 1
    26   15   16 ar
    27   15   27 1
    28   16   17 1
    29   19   28 1
@<TRIPOS>MOLECULE
ZINC19894308
   32    35     0     0     0
SMALL
USER_CHARGES
5-(3-aminothieno[5,4-b]pyridin-2-yl)-4-(4-fluorophenyl)-2H-1,2,4-triazole-3-thione
@<TRIPOS>ATOM
      1 C1         -0.4550    5.3670    0.0345 C.ar      1 <0>        -0.1894
      2 C2         -0.1868    4.0177    0.0254 C.ar      1 <0>        -0.0225
      3 C3         -1.2682    3.1031    0.0310 C.ar      1 <0>        -0.1597
      4 C4         -1.2325    1.6490    0.0169 C.2       1 <0>         0.2456
      5 C5         -2.4096    0.9654    0.0187 C.2       1 <0>        -0.1987
      6 S1         -3.6392    2.2552    0.0322 S.3       1 <0>         0.1264
      7 C6         -2.5646    3.6688    0.0351 C.ar      1 <0>         0.0962
      8 N1         -2.7695    4.9668    0.0436 N.ar      1 <0>        -0.4492
      9 C7         -1.7646    5.8219    0.0436 C.ar      1 <0>         0.1337
     10 C8         -2.6170   -0.4899    0.0113 C.2       1 <0>         0.2850
     11 N2         -1.6750   -1.3966   -0.0042 N.2       1 <0>        -0.3311
     12 N3         -2.2873   -2.6572   -0.0028 N.2       1 <0>        -0.3705
     13 C9         -3.6218   -2.4624    0.0049 C.2       1 <0>         0.3963
     14 S2         -4.8204   -3.6848    0.0047 S.3       1 <0>        -0.7560
     15 N4         -3.8427   -1.1329    0.0137 N.pl3     1 <0>        -0.4649
     16 C10        -5.0978   -0.5088    0.0239 C.ar      1 <0>         0.1391
     17 C11        -5.4908    0.2442    1.1222 C.ar      1 <0>        -0.0774
     18 C12        -6.7258    0.8623    1.1284 C.ar      1 <0>        -0.1410
     19 C13        -7.5765    0.7224    0.0446 C.ar      1 <0>         0.0995
     20 C14        -7.1883   -0.0321   -1.0497 C.ar      1 <0>        -0.1426
     21 C15        -5.9519   -0.6474   -1.0619 C.ar      1 <0>        -0.0511
     22 F1         -8.7865    1.3232    0.0549 F         1 <0>        -0.1412
     23 N5         -0.0111    0.9658    0.0074 N.pl3     1 <0>        -0.8695
     24 H1          0.3596    6.0761    0.0349 H         1 <0>         0.1399
     25 H2          0.8327    3.6613    0.0186 H         1 <0>         0.1339
     26 H3         -1.9636    6.8834    0.0510 H         1 <0>         0.1670
     27 H4         -4.8294    0.3498    1.9695 H         1 <0>         0.1338
     28 H5         -7.0301    1.4517    1.9807 H         1 <0>         0.1401
     29 H6         -7.8530   -0.1398   -1.8942 H         1 <0>         0.1398
     30 H7         -5.6498   -1.2364   -1.9153 H         1 <0>         0.1371
     31 H8          0.0038   -0.1340   -0.0032 H         1 <0>         0.4472
     32 H9          0.9340    1.5287    0.0106 H         1 <0>         0.4043
@<TRIPOS>BOND
     1    1    9 ar
     2    1    2 ar
     3    1   24 1
     4    2    3 ar
     5    2   25 1
     6    3    7 ar
     7    3    4 1
     8    4    5 2
     9    4   23 1
    10    5    6 1
    11    5   10 1
    12    6    7 1
    13    7    8 ar
    14    8    9 ar
    15    9   26 1
    16   10   15 1
    17   10   11 2
    18   11   12 1
    19   12   13 2
    20   13   14 1
    21   13   15 1
    22   15   16 1
    23   16   21 ar
    24   16   17 ar
    25   17   18 ar
    26   17   27 1
    27   18   19 ar
    28   18   28 1
    29   19   20 ar
    30   19   22 1
    31   20   21 ar
    32   20   29 1
    33   21   30 1
    34   23   31 1
    35   23   32 1
@<TRIPOS>MOLECULE
ZINC38033761
   32    33     0     0     0
SMALL
USER_CHARGES

@<TRIPOS>ATOM
      1 C1          0.0286    1.4827    0.0419 C.3       1 <0>         0.0243
      2 O1          0.0059    0.0539    0.0310 O.3       1 <0>        -0.3092
      3 C2          0.6266   -0.5811    1.0605 C.ar      1 <0>         0.1295
      4 C3          1.2394    0.1556    2.0628 C.ar      1 <0>        -0.2067
      5 C4          1.8697   -0.4918    3.1082 C.ar      1 <0>         0.0080
      6 C5          1.8909   -1.8734    3.1563 C.ar      1 <0>        -0.6231
      7 C6          1.2815   -2.6119    2.1588 C.ar      1 <0>        -0.0173
      8 C7          0.6432   -1.9691    1.1133 C.ar      1 <0>         0.0446
      9 F1          0.0425   -2.6902    0.1417 F         1 <0>        -0.1331
     10 S1          2.6963   -2.6946    4.4910 S.o2      1 <0>         2.6049
     11 O2          3.0469   -3.9885    4.0195 O.2       1 <0>        -1.0263
     12 O3          3.6588   -1.7849    5.0061 O.2       1 <0>        -1.0260
     13 N1          1.5679   -2.9149    5.6828 N.2       1 <0>        -1.0681
     14 C8          1.9014   -3.6275    6.8377 C.ar      1 <0>         0.3233
     15 C9          3.2120   -4.0305    7.0511 C.ar      1 <0>        -0.3278
     16 C10         3.5393   -4.7376    8.1994 C.ar      1 <0>         0.2602
     17 C11         2.5546   -5.0401    9.1320 C.ar      1 <0>        -0.2829
     18 C12         1.2503   -4.6378    8.9173 C.ar      1 <0>        -0.0312
     19 C13         0.9216   -3.9287    7.7770 C.ar      1 <0>        -0.1337
     20 Cl1        -0.7170   -3.4190    7.5148 Cl        1 <0>        -0.0987
     21 N2          4.8579   -5.1454    8.4175 N.pl3     1 <0>        -0.8849
     22 H1          1.0616    1.8299    0.0200 H         1 <0>         0.0587
     23 H2         -0.5005    1.8612   -0.8327 H         1 <0>         0.1022
     24 H3         -0.4580    1.8469    0.9467 H         1 <0>         0.0600
     25 H4          1.2243    1.2349    2.0262 H         1 <0>         0.1422
     26 H5          2.3469    0.0822    3.8887 H         1 <0>         0.1475
     27 H6          1.3000   -3.6910    2.1983 H         1 <0>         0.1568
     28 H7          3.9757   -3.7946    6.3248 H         1 <0>         0.1031
     29 H8          2.8089   -5.5907   10.0256 H         1 <0>         0.1075
     30 H9          0.4868   -4.8745    9.6435 H         1 <0>         0.1140
     31 H10         5.5449   -4.9343    7.7661 H         1 <0>         0.3925
     32 H11         5.0862   -5.6396    9.2203 H         1 <0>         0.3899
@<TRIPOS>BOND
     1    1    2 1
     2    1   22 1
     3    1   23 1
     4    1   24 1
     5    2    3 1
     6    3    8 ar
     7    3    4 ar
     8    4    5 ar
     9    4   25 1
    10    5    6 ar
    11    5   26 1
    12    6    7 ar
    13    6   10 1
    14    7    8 ar
    15    7   27 1
    16    8    9 1
    17   10   11 2
    18   10   12 2
    19   10   13 1
    20   13   14 1
    21   14   19 ar
    22   14   15 ar
    23   15   16 ar
    24   15   28 1
    25   16   17 ar
    26   16   21 1
    27   17   18 ar
    28   17   29 1
    29   18   19 ar
    30   18   30 1
    31   19   20 1
    32   21   31 1
    33   21   32 1
@<TRIPOS>MOLECULE
ZINC50648845
   34    36     0     0     0
SMALL
USER_CHARGES

@<TRIPOS>ATOM
      1 C1         -0.0187    1.5258    0.0104 C.3       1 <0>        -0.1361
      2 C2          0.0021   -0.0041    0.0020 C.3       1 <0>        -0.0508
      3 C3         -1.4117   -0.5257    0.0127 C.ar      1 <0>        -0.1484
      4 C4         -2.0149   -0.8638    1.2084 C.ar      1 <0>        -0.0796
      5 C5         -3.3118   -1.3430    1.2191 C.ar      1 <0>        -0.2243
      6 C6         -4.0097   -1.4849    0.0335 C.ar      1 <0>        -0.0715
      7 C7         -3.4129   -1.1483   -1.1654 C.ar      1 <0>        -0.2653
      8 C8         -2.1117   -0.6616   -1.1792 C.ar      1 <0>         0.2816
      9 N1         -1.5068   -0.3152   -2.3896 N.2       1 <0>        -1.0804
     10 S1         -2.3430   -0.4780   -3.8096 S.o2      1 <0>         2.6336
     11 O1         -2.5559   -1.8702   -3.9983 O.2       1 <0>        -1.0340
     12 O2         -3.4125    0.4564   -3.7605 O.2       1 <0>        -1.0268
     13 C9         -1.2736    0.0484   -5.1073 C.2       1 <0>        -0.6008
     14 C10        -1.1600    1.3042   -5.5863 C.2       1 <0>         0.4208
     15 N2         -0.2429    1.2995   -6.5687 N.2       1 <0>        -0.4903
     16 C11         0.2154    0.0885   -6.7159 C.2       1 <0>         0.2243
     17 N3         -0.3845   -0.7584   -5.8231 N.pl3     1 <0>        -0.3799
     18 C12         0.0058   -2.0791   -5.8559 C.2       1 <0>         0.0603
     19 C13         0.9288   -2.4964   -6.7214 C.2       1 <0>        -0.2047
     20 S2          1.3213   -0.9895   -7.5963 S.3       1 <0>         0.1224
     21 N4         -1.8766    2.4238   -5.1360 N.pl3     1 <0>        -0.8345
     22 H1          1.0039    1.9031    0.0027 H         1 <0>         0.0376
     23 H2         -0.5459    1.8868   -0.8726 H         1 <0>         0.0614
     24 H3         -0.5289    1.8773    0.9072 H         1 <0>         0.0396
     25 H4          0.5123   -0.3556   -0.8948 H         1 <0>         0.0732
     26 H5          0.5293   -0.3651    0.8851 H         1 <0>         0.0415
     27 H6         -1.4727   -0.7542    2.1360 H         1 <0>         0.1026
     28 H7         -3.7809   -1.6073    2.1553 H         1 <0>         0.0997
     29 H8         -5.0225   -1.8598    0.0453 H         1 <0>         0.0996
     30 H9         -3.9583   -1.2597   -2.0909 H         1 <0>         0.0944
     31 H10        -0.4415   -2.7848   -5.1716 H         1 <0>         0.1857
     32 H11         1.3305   -3.4891   -6.8619 H         1 <0>         0.2181
     33 H12        -2.5215    2.3301   -4.4176 H         1 <0>         0.4267
     34 H13        -1.7270    3.2914   -5.5433 H         1 <0>         0.4041
@<TRIPOS>BOND
     1    1    2 1
     2    1   22 1
     3    1   23 1
     4    1   24 1
     5    2    3 1
     6    2   25 1
     7    2   26 1
     8    3    8 ar
     9    3    4 ar
    10    4    5 ar
    11    4   27 1
    12    5    6 ar
    13    5   28 1
    14    6    7 ar
    15    6   29 1
    16    7    8 ar
    17    7   30 1
    18    8    9 1
    19    9   10 1
    20   10   11 2
    21   10   12 2
    22   10   13 1
    23   13   17 1
    24   13   14 2
    25   14   15 1
    26   14   21 1
    27   15   16 2
    28   16   20 1
    29   16   17 1
    30   17   18 1
    31   18   19 2
    32   18   31 1
    33   19   20 1
    34   19   32 1
    35   21   33 1
    36   21   34 1
@<TRIPOS>MOLECULE
ZINC07708293
   34    35     0     0     0
SMALL
USER_CHARGES

@<TRIPOS>ATOM
      1 C1         -0.0184    1.5028    0.0103 C.3       1 <0>        -0.0827
      2 C2          0.0021   -0.0041    0.0020 C.ar      1 <0>        -0.1415
      3 C3          0.0058   -0.6929   -1.2042 C.ar      1 <0>         0.2895
      4 C4          0.0246   -2.0818   -1.2075 C.ar      1 <0>        -0.2591
      5 C5          0.0396   -2.7741   -0.0123 C.ar      1 <0>        -0.0592
      6 C6          0.0354   -2.0865    1.1870 C.ar      1 <0>        -0.2122
      7 C7          0.0229   -0.7023    1.1944 C.ar      1 <0>         0.0113
      8 Cl1         0.0261    0.1570    2.7028 Cl        1 <0>        -0.1013
      9 N1         -0.0099    0.0096   -2.4113 N.2       1 <0>        -1.0782
     10 S1         -0.0055   -0.8133   -3.8484 S.o2      1 <0>         2.5945
     11 O1          1.2488   -1.4758   -3.9332 O.2       1 <0>        -1.0207
     12 O2         -1.2416   -1.5104   -3.9210 O.2       1 <0>        -1.0210
     13 C8         -0.0284    0.3883   -5.1369 C.ar      1 <0>        -0.5582
     14 C9         -1.2345    0.8472   -5.6326 C.ar      1 <0>        -0.0454
     15 C10        -1.2525    1.7899   -6.6435 C.ar      1 <0>        -0.0475
     16 C11        -0.0645    2.2741   -7.1583 C.ar      1 <0>        -0.6462
     17 C12         1.1416    1.8158   -6.6620 C.ar      1 <0>        -0.0422
     18 C13         1.1596    0.8763   -5.6482 C.ar      1 <0>        -0.0456
     19 S2         -0.0874    3.4748   -8.4476 S.o2      1 <0>         2.7040
     20 O3          1.1541    3.3622   -9.1297 O.2       1 <0>        -0.9631
     21 O4         -1.3364    3.3349   -9.1107 O.2       1 <0>        -0.9608
     22 N2         -0.0983    4.9661   -7.7277 N.pl3     1 <0>        -1.2471
     23 H1          1.0042    1.8801    0.0026 H         1 <0>         0.0514
     24 H2         -0.5455    1.8639   -0.8728 H         1 <0>         0.0740
     25 H3         -0.5286    1.8543    0.9071 H         1 <0>         0.0471
     26 H4          0.0271   -2.6200   -2.1439 H         1 <0>         0.1023
     27 H5          0.0542   -3.8540   -0.0148 H         1 <0>         0.1126
     28 H6          0.0464   -2.6304    2.1200 H         1 <0>         0.1136
     29 H7         -2.1627    0.4690   -5.2303 H         1 <0>         0.1488
     30 H8         -2.1948    2.1479   -7.0312 H         1 <0>         0.1472
     31 H9          2.0698    2.1938   -7.0645 H         1 <0>         0.1470
     32 H10         2.1018    0.5210   -5.2578 H         1 <0>         0.1488
     33 H11         0.3100    5.7237   -8.1752 H         1 <0>         0.4206
     34 H12        -0.5130    5.0820   -6.8585 H         1 <0>         0.4193
@<TRIPOS>BOND
     1    1    2 1
     2    1   23 1
     3    1   24 1
     4    1   25 1
     5    2    7 ar
     6    2    3 ar
     7    3    4 ar
     8    3    9 1
     9    4    5 ar
    10    4   26 1
    11    5    6 ar
    12    5   27 1
    13    6    7 ar
    14    6   28 1
    15    7    8 1
    16    9   10 1
    17   10   11 2
    18   10   12 2
    19   10   13 1
    20   13   18 ar
    21   13   14 ar
    22   14   15 ar
    23   14   29 1
    24   15   16 ar
    25   15   30 1
    26   16   17 ar
    27   16   19 1
    28   17   18 ar
    29   17   31 1
    30   18   32 1
    31   19   20 2
    32   19   21 2
    33   19   22 1
    34   22   33 1
    35   22   34 1
@<TRIPOS>MOLECULE
ZINC63822631
   43    46     0     0     0
SMALL
USER_CHARGES

@<TRIPOS>ATOM
      1 C1          0.5813    1.4297    0.0459 C.3       1 <0>        -0.1216
      2 C2          0.2840   -0.0475    0.0227 C.ar      1 <0>        -0.0780
      3 C3          0.2879   -0.7346   -1.1770 C.ar      1 <0>        -0.1216
      4 C4          0.0152   -2.0894   -1.1983 C.ar      1 <0>        -0.1192
      5 C5         -0.2609   -2.7576   -0.0198 C.ar      1 <0>        -0.1277
      6 C6         -0.2639   -2.0709    1.1796 C.ar      1 <0>        -0.1037
      7 C7          0.0131   -0.7165    1.2014 C.ar      1 <0>        -0.0660
      8 C8          0.0150    0.0312    2.5098 C.3       1 <0>         0.0365
      9 H1          0.0808    1.1039    2.3277 H         1 <0>         0.0966
     10 C9         -1.2589   -0.2923    3.3048 C.3       1 <0>        -0.1185
     11 C10        -1.0767   -0.0570    4.7692 C.2       1 <0>         0.5238
     12 O1         -2.0911    0.0714    5.4215 O.2       1 <0>        -0.5714
     13 N1          0.0716    0.0277    5.4425 N.am      1 <0>        -0.7103
     14 C11         1.3646    0.1119    4.7766 C.3       1 <0>         0.4373
     15 H2          1.7113    1.1449    4.7488 H         1 <0>         0.0827
     16 C12         1.1737   -0.4220    3.3647 C.2       1 <0>        -0.3078
     17 C13         2.1272   -1.2771    3.1318 C.2       1 <0>         0.1917
     18 N2          2.9199   -1.4710    4.2533 N.pl3     1 <0>        -0.5366
     19 N3          2.3866   -0.7545    5.3642 N.pl3     1 <0>        -0.4336
     20 C14         2.7469   -0.8491    6.7065 C.ar      1 <0>         0.2323
     21 C15         3.7507   -1.7342    7.1006 C.ar      1 <0>        -0.1360
     22 C16         4.0733   -1.7922    8.4458 C.ar      1 <0>        -0.1878
     23 C17         3.3754   -0.9632    9.3219 C.ar      1 <0>         0.3374
     24 O2          3.6580   -0.9855   10.6500 O.3       1 <0>        -0.7107
     25 N4          2.4383   -0.1547    8.8581 N.ar      1 <0>        -0.3247
     26 N5          2.1418   -0.0957    7.6107 N.ar      1 <0>        -0.2526
     27 C18         2.3421   -1.9695    1.8107 C.3       1 <0>        -0.1073
     28 H3          1.6538    1.5826    0.1662 H         1 <0>         0.0727
     29 H4          0.2527    1.8812   -0.8902 H         1 <0>         0.0644
     30 H5          0.0525    1.8937    0.8785 H         1 <0>         0.0736
     31 H6          0.5036   -0.2127   -2.0976 H         1 <0>         0.1194
     32 H7          0.0175   -2.6261   -2.1356 H         1 <0>         0.1180
     33 H8         -0.4747   -3.8161   -0.0366 H         1 <0>         0.1193
     34 H9         -0.4799   -2.5928    2.1001 H         1 <0>         0.1225
     35 H10        -2.0722    0.3366    2.9429 H         1 <0>         0.0992
     36 H11        -1.5219   -1.3377    3.1434 H         1 <0>         0.0992
     37 H12         0.0447    0.0337    6.4121 H         1 <0>         0.4120
     38 H13         3.7243   -2.0125    4.2793 H         1 <0>         0.4233
     39 H14         4.2602   -2.3552    6.3788 H         1 <0>         0.1092
     40 H15         4.8422   -2.4599    8.8053 H         1 <0>         0.1225
     41 H16         2.0885   -1.2886    0.9981 H         1 <0>         0.0940
     42 H17         3.3869   -2.2674    1.7223 H         1 <0>         0.0626
     43 H18         1.7064   -2.8532    1.7560 H         1 <0>         0.0849
@<TRIPOS>BOND
     1    1    2 1
     2    1   28 1
     3    1   29 1
     4    1   30 1
     5    2    7 ar
     6    2    3 ar
     7    3    4 ar
     8    3   31 1
     9    4    5 ar
    10    4   32 1
    11    5    6 ar
    12    5   33 1
    13    6    7 ar
    14    6   34 1
    15    7    8 1
    16    8    9 1
    17    8   16 1
    18    8   10 1
    19   10   11 1
    20   10   35 1
    21   10   36 1
    22   11   12 2
    23   11   13 am
    24   13   14 1
    25   13   37 1
    26   14   15 1
    27   14   19 1
    28   14   16 1
    29   16   17 2
    30   17   18 1
    31   17   27 1
    32   18   19 1
    33   18   38 1
    34   19   20 1
    35   20   21 ar
    36   20   26 ar
    37   21   22 ar
    38   21   39 1
    39   22   23 ar
    40   22   40 1
    41   23   24 1
    42   23   25 ar
    43   25   26 ar
    44   27   41 1
    45   27   42 1
    46   27   43 1
@<TRIPOS>MOLECULE
ZINC13094004
   45    47     0     0     0
SMALL
USER_CHARGES
4-fluoro-3-[[(S)-phenyl-(p-tolyl)methyl]sulfamoyl]benzoic acid
@<TRIPOS>ATOM
      1 C1          1.5916   -2.5950   -6.9902 C.3       1 <0>        -0.1143
      2 C2          1.0491   -2.6530   -5.5854 C.ar      1 <0>        -0.0875
      3 C3          1.8955   -2.9316   -4.5286 C.ar      1 <0>        -0.1168
      4 C4          1.3979   -2.9844   -3.2400 C.ar      1 <0>        -0.0997
      5 C5          0.0539   -2.7590   -3.0083 C.ar      1 <0>        -0.0806
      6 C6         -0.7935   -2.4861   -4.0657 C.ar      1 <0>        -0.1017
      7 C7         -0.2950   -2.4281   -5.3538 C.ar      1 <0>        -0.1189
      8 C8         -0.4886   -2.8170   -1.6035 C.3       1 <0>         0.2339
      9 H1          0.3283   -2.6908   -0.8930 H         1 <0>         0.1125
     10 C9         -1.1511   -4.1512   -1.3755 C.ar      1 <0>        -0.1037
     11 C10        -2.4348   -4.3735   -1.8378 C.ar      1 <0>        -0.0976
     12 C11        -3.0408   -5.5989   -1.6325 C.ar      1 <0>        -0.1211
     13 C12        -2.3668   -6.5987   -0.9565 C.ar      1 <0>        -0.1142
     14 C13        -1.0850   -6.3748   -0.4900 C.ar      1 <0>        -0.1130
     15 C14        -0.4773   -5.1509   -0.6991 C.ar      1 <0>        -0.1001
     16 N1         -1.4700   -1.7458   -1.4144 N.pl3     1 <0>        -1.1068
     17 S1         -1.5634   -0.9553    0.0377 S.o2      1 <0>         2.6968
     18 O1         -2.6090   -0.0010   -0.0860 O.2       1 <0>        -0.9536
     19 O2         -0.2355   -0.5894    0.3871 O.2       1 <0>        -0.9487
     20 C15        -2.0941   -2.1311    1.2378 C.ar      1 <0>        -0.7239
     21 C16        -1.2496   -2.4952    2.2646 C.ar      1 <0>         0.0356
     22 C17        -1.6716   -3.4278    3.2150 C.ar      1 <0>        -0.1374
     23 C18        -2.9488   -3.9863    3.1191 C.ar      1 <0>         0.0047
     24 C19        -3.7847   -3.6149    2.0885 C.ar      1 <0>        -0.1840
     25 C20        -3.3603   -2.6888    1.1474 C.ar      1 <0>         0.1909
     26 F1         -4.1839   -2.3284    0.1389 F         1 <0>        -0.1310
     27 C21        -0.7716   -3.8220    4.3164 C.2       1 <0>         0.4915
     28 O3          0.3385   -3.3351    4.3976 O.co2     1 <0>        -0.6217
     29 H2          1.5344   -3.5849   -7.4429 H         1 <0>         0.0692
     30 H3          1.0022   -1.8918   -7.5786 H         1 <0>         0.0650
     31 H4          2.6306   -2.2664   -6.9652 H         1 <0>         0.0657
     32 H5          2.9455   -3.1077   -4.7096 H         1 <0>         0.1234
     33 H6          2.0592   -3.2020   -2.4143 H         1 <0>         0.1279
     34 H7         -1.8444   -2.3144   -3.8852 H         1 <0>         0.1206
     35 H8         -0.9563   -2.2109   -6.1795 H         1 <0>         0.1216
     36 H9         -2.9629   -3.5910   -2.3624 H         1 <0>         0.1179
     37 H10        -4.0422   -5.7739   -1.9973 H         1 <0>         0.1194
     38 H11        -2.8416   -7.5549   -0.7932 H         1 <0>         0.1197
     39 H12        -0.5584   -7.1559    0.0381 H         1 <0>         0.1239
     40 H13         0.5241   -4.9758   -0.3343 H         1 <0>         0.1251
     41 H14        -2.0651   -1.4997   -2.1398 H         1 <0>         0.4169
     42 H15        -0.2619   -2.0635    2.3315 H         1 <0>         0.1560
     43 H16        -3.2804   -4.7073    3.8516 H         1 <0>         0.1482
     44 H17        -4.7720   -4.0462    2.0132 H         1 <0>         0.1380
     45 O4         -1.1811   -4.7218    5.2318 O.co2     1 <0>        -0.7483
@<TRIPOS>BOND
     1    1    2 1
     2    1   29 1
     3    1   30 1
     4    1   31 1
     5    2    7 ar
     6    2    3 ar
     7    3    4 ar
     8    3   32 1
     9    4    5 ar
    10    4   33 1
    11    5    6 ar
    12    5    8 1
    13    6    7 ar
    14    6   34 1
    15    7   35 1
    16    8    9 1
    17    8   10 1
    18    8   16 1
    19   10   15 ar
    20   10   11 ar
    21   11   12 ar
    22   11   36 1
    23   12   13 ar
    24   12   37 1
    25   13   14 ar
    26   13   38 1
    27   14   15 ar
    28   14   39 1
    29   15   40 1
    30   16   17 1
    31   16   41 1
    32   17   18 2
    33   17   19 2
    34   17   20 1
    35   20   25 ar
    36   20   21 ar
    37   21   22 ar
    38   21   42 1
    39   22   23 ar
    40   22   27 1
    41   23   24 ar
    42   23   43 1
    43   24   25 ar
    44   24   44 1
    45   25   26 1
    46   27   28 2
    47   27   45 1
@<TRIPOS>MOLECULE
ZINC22878730
   53    58     0     0     0
SMALL
USER_CHARGES
2-[3-(2-thienyl)-5-thioxo-1H-1,2,4-triazol-4-yl]-N-(BLAHylmethyl)acetamide
@<TRIPOS>ATOM
      1 C1         -1.2217    1.7460    0.0173 C.ar      1 <0>        -0.1221
      2 C2         -0.0126    1.0758    0.0080 C.ar      1 <0>        -0.1223
      3 C3          1.1835    1.7820    0.0003 C.ar      1 <0>        -0.1051
      4 C4          1.1419    3.1468    0.0077 C.ar      1 <0>        -0.0760
      5 C5         -0.0773    3.8225    0.0224 C.ar      1 <0>        -0.0759
      6 C6         -1.2567    3.1346    0.0300 C.ar      1 <0>        -0.1083
      7 C7          0.0454    5.3381    0.0296 C.3       1 <0>        -0.0068
      8 C8          0.8651    5.6875   -1.2327 C.3       1 <0>        -0.1119
      9 C9          2.2007    4.9472   -1.2489 C.3       1 <0>        -0.0868
     10 H1          2.2266    4.3129   -2.1472 H         1 <0>         0.0868
     11 C10         2.3622    4.0540    0.0015 C.3       1 <0>        -0.0016
     12 C11         2.1749    4.9849    1.1889 C.ar      1 <0>        -0.0771
     13 C12         0.9560    5.6606    1.2036 C.ar      1 <0>        -0.0792
     14 C13         0.6520    6.5301    2.2116 C.ar      1 <0>        -0.1073
     15 C14         1.5802    6.7308    3.2252 C.ar      1 <0>        -0.1211
     16 C15         2.7892    6.0605    3.2106 C.ar      1 <0>        -0.1192
     17 C16         3.0920    5.1775    2.1821 C.ar      1 <0>        -0.1037
     18 C17         3.3393    5.9686   -1.2855 C.3       1 <0>         0.1340
     19 N1          3.2882    6.7119   -2.5469 N.am      1 <0>        -0.7410
     20 C18         4.2004    7.6708   -2.8014 C.2       1 <0>         0.5111
     21 O1          5.0635    7.9184   -1.9861 O.2       1 <0>        -0.5146
     22 C19         4.1479    8.4354   -4.0989 C.3       1 <0>         0.0961
     23 N2          5.2381    9.4134   -4.1340 N.pl3     1 <0>        -0.4843
     24 C20         5.1706   10.7179   -3.6821 C.2       1 <0>         0.2398
     25 N3          6.3329   11.2825   -3.8726 N.2       1 <0>        -0.2900
     26 N4          7.1802   10.3389   -4.4693 N.2       1 <0>        -0.3724
     27 C21         6.4774    9.1974   -4.6176 C.2       1 <0>         0.4051
     28 S1          7.0558    7.7365   -5.2975 S.3       1 <0>        -0.7617
     29 C22         3.9889   11.3613   -3.0830 C.2       1 <0>        -0.0436
     30 C23         3.9108   12.5265   -2.3636 C.2       1 <0>        -0.1379
     31 C24         2.6807   12.9367   -1.9016 C.2       1 <0>        -0.1423
     32 C25         1.5874   12.1735   -2.1615 C.2       1 <0>        -0.1887
     33 S2          2.2865   10.8236   -3.0974 S.3       1 <0>         0.0403
     34 H2         -2.1452    1.1862    0.0192 H         1 <0>         0.1199
     35 H3          0.0021   -0.0041    0.0020 H         1 <0>         0.1205
     36 H4          2.1294    1.2609   -0.0115 H         1 <0>         0.1248
     37 H5         -2.1999    3.6606    0.0408 H         1 <0>         0.1233
     38 H6         -0.9273    5.8486    0.0874 H         1 <0>         0.1037
     39 H7          0.2960    5.4026   -2.1299 H         1 <0>         0.0737
     40 H8          1.0641    6.7692   -1.2529 H         1 <0>         0.0797
     41 H9          3.3115    3.4993    0.0359 H         1 <0>         0.1072
     42 H10        -0.2931    7.0527    2.2204 H         1 <0>         0.1227
     43 H11         1.3561    7.4153    4.0300 H         1 <0>         0.1201
     44 H12         3.5029    6.2243    4.0045 H         1 <0>         0.1210
     45 H13         4.0357    4.6525    2.1683 H         1 <0>         0.1248
     46 H14         3.2318    6.6679   -0.4432 H         1 <0>         0.0682
     47 H15         4.3038    5.4455   -1.2069 H         1 <0>         0.0655
     48 H16         2.5053    6.4874   -3.2863 H         1 <0>         0.4165
     49 H17         4.2554    7.7361   -4.9412 H         1 <0>         0.1329
     50 H18         3.1834    8.9585   -4.1775 H         1 <0>         0.1003
     51 H19         4.7964   13.1122   -2.1663 H         1 <0>         0.1424
     52 H20         2.5868   13.8517   -1.3356 H         1 <0>         0.1356
     53 H21         0.5594   12.3407   -1.8758 H         1 <0>         0.1849
@<TRIPOS>BOND
     1    1    6 ar
     2    1    2 ar
     3    1   34 1
     4    2    3 ar
     5    2   35 1
     6    3    4 ar
     7    3   36 1
     8    4   11 1
     9    4    5 ar
    10    5    6 ar
    11    5    7 1
    12    6   37 1
    13    7   13 1
    14    7    8 1
    15    7   38 1
    16    8    9 1
    17    8   39 1
    18    8   40 1
    19    9   10 1
    20    9   11 1
    21    9   18 1
    22   11   12 1
    23   11   41 1
    24   12   17 ar
    25   12   13 ar
    26   13   14 ar
    27   14   15 ar
    28   14   42 1
    29   15   16 ar
    30   15   43 1
    31   16   17 ar
    32   16   44 1
    33   17   45 1
    34   18   19 1
    35   18   46 1
    36   18   47 1
    37   19   20 am
    38   19   48 1
    39   20   21 2
    40   20   22 1
    41   22   23 1
    42   22   49 1
    43   22   50 1
    44   23   27 1
    45   23   24 1
    46   24   25 2
    47   24   29 1
    48   25   26 1
    49   26   27 2
    50   27   28 1
    51   29   33 1
    52   29   30 2
    53   30   31 1
    54   30   51 1
    55   31   32 2
    56   31   52 1
    57   32   33 1
    58   32   53 1
@<TRIPOS>MOLECULE
ZINC02027851
   47    49     0     0     0
SMALL
USER_CHARGES
2-hydroxy-N-(4-iodophenyl)-4-oxo-1-pentyl-quinoline-3-carboxamide
@<TRIPOS>ATOM
      1 C1          7.1089    1.1025   -2.9118 C.3       1 <0>        -0.1522
      2 C2          5.7857    1.8706   -2.9025 C.3       1 <0>        -0.1255
      3 C3          5.3511    2.1203   -1.4569 C.3       1 <0>        -0.1139
      4 C4          4.0279    2.8884   -1.4476 C.3       1 <0>        -0.1348
      5 C5          3.5933    3.1381   -0.0020 C.3       1 <0>         0.1050
      6 N1          2.3263    3.8735    0.0069 N.pl3     1 <0>        -0.5182
      7 C6          1.1402    3.1659    0.0092 C.ar      1 <0>         0.2136
      8 C7          1.1445    1.7745    0.0022 C.ar      1 <0>        -0.1896
      9 C8         -0.0476    1.0830    0.0041 C.ar      1 <0>        -0.0714
     10 C9         -1.2584    1.7604    0.0072 C.ar      1 <0>        -0.1808
     11 C10        -1.2848    3.1375    0.0200 C.ar      1 <0>        -0.0341
     12 C11        -0.0857    3.8505    0.0182 C.ar      1 <0>        -0.1882
     13 C12        -0.0776    5.3253    0.0250 C.2       1 <0>         0.4356
     14 O1         -1.1183    5.9601    0.0329 O.2       1 <0>        -0.5575
     15 C13         1.1839    5.9833    0.0222 C.2       1 <0>        -0.5155
     16 C14         2.3520    5.2256    0.0131 C.2       1 <0>         0.5219
     17 O2          3.5417    5.8575    0.0101 O.3       1 <0>        -0.6689
     18 C15         1.2533    7.4483    0.0292 C.2       1 <0>         0.6543
     19 O3          1.2773    8.0614   -1.0218 O.2       1 <0>        -0.5434
     20 N2          1.2904    8.1156    1.1997 N.am      1 <0>        -0.6836
     21 C16         1.4539    9.5048    1.2079 C.ar      1 <0>         0.1994
     22 C17         2.1812   10.1139    2.2222 C.ar      1 <0>        -0.1560
     23 C18         2.3449   11.4852    2.2250 C.ar      1 <0>        -0.0662
     24 C19         1.7764   12.2531    1.2246 C.ar      1 <0>        -0.1313
     25 C20         1.0470   11.6498    0.2158 C.ar      1 <0>        -0.0658
     26 C21         0.8843   10.2784    0.2048 C.ar      1 <0>        -0.1267
     27 I1          2.0211   14.3337    1.2369 I         1 <0>        -0.0663
     28 H1          7.4213    0.9230   -3.9511 H         1 <0>         0.0510
     29 H2          6.9774    0.1394   -2.3969 H         1 <0>         0.0521
     30 H3          7.8792    1.6929   -2.3941 H         1 <0>         0.0535
     31 H4          5.9172    2.8337   -3.4174 H         1 <0>         0.0624
     32 H5          5.0154    1.2802   -3.4202 H         1 <0>         0.0600
     33 H6          5.2196    1.1572   -0.9420 H         1 <0>         0.0596
     34 H7          6.1214    2.7107   -0.9392 H         1 <0>         0.0644
     35 H8          4.1594    3.8515   -1.9625 H         1 <0>         0.0733
     36 H9          3.2576    2.2980   -1.9653 H         1 <0>         0.0614
     37 H10         3.4619    2.1750    0.5129 H         1 <0>         0.0751
     38 H11         4.3636    3.7285    0.5157 H         1 <0>         0.0949
     39 H12         2.0812    1.2369   -0.0051 H         1 <0>         0.1260
     40 H13        -0.0392    0.0031   -0.0014 H         1 <0>         0.1198
     41 H14        -2.1847    1.2052    0.0038 H         1 <0>         0.1189
     42 H15        -2.2286    3.6625    0.0266 H         1 <0>         0.1301
     43 H16         1.1921    7.5677    2.1485 H         1 <0>         0.4295
     44 H17         2.6218    9.5153    3.0058 H         1 <0>         0.1301
     45 H18         2.9138   11.9590    3.0113 H         1 <0>         0.1254
     46 H19         0.6046   12.2518   -0.5641 H         1 <0>         0.1255
     47 H20         0.3150    9.8079   -0.5832 H         1 <0>         0.1474
@<TRIPOS>BOND
     1    1    2 1
     2    1   28 1
     3    1   29 1
     4    1   30 1
     5    2    3 1
     6    2   31 1
     7    2   32 1
     8    3    4 1
     9    3   33 1
    10    3   34 1
    11    4    5 1
    12    4   35 1
    13    4   36 1
    14    5    6 1
    15    5   37 1
    16    5   38 1
    17    6   16 1
    18    6    7 1
    19    7   12 ar
    20    7    8 ar
    21    8    9 ar
    22    8   39 1
    23    9   10 ar
    24    9   40 1
    25   10   11 ar
    26   10   41 1
    27   11   12 ar
    28   11   42 1
    29   12   13 1
    30   13   14 2
    31   13   15 1
    32   15   16 2
    33   15   18 1
    34   16   17 1
    35   18   19 2
    36   18   20 am
    37   20   21 1
    38   20   43 1
    39   21   26 ar
    40   21   22 ar
    41   22   23 ar
    42   22   44 1
    43   23   24 ar
    44   23   45 1
    45   24   25 ar
    46   24   27 1
    47   25   26 ar
    48   25   46 1
    49   26   47 1
@<TRIPOS>MOLECULE
ZINC17056238
   45    46     0     0     0
SMALL
USER_CHARGES

@<TRIPOS>ATOM
      1 C1         -0.0187    1.5258    0.0104 C.3       1 <0>        -0.1683
      2 C2          0.0021   -0.0041    0.0020 C.3       1 <0>         0.1452
      3 H1          0.5293   -0.3651    0.8851 H         1 <0>         0.0896
      4 C3         -1.4333   -0.5336    0.0129 C.3       1 <0>        -0.1044
      5 C4         -2.1494   -0.0402    1.2717 C.3       1 <0>        -0.1469
      6 C5         -2.1733   -0.0268   -1.2266 C.3       1 <0>        -0.1524
      7 N1          0.6878   -0.4765   -1.2033 N.am      1 <0>        -0.7267
      8 C6          2.0310   -0.5870   -1.2149 C.2       1 <0>         0.5636
      9 O1          2.6734   -0.2946   -0.2254 O.2       1 <0>        -0.5288
     10 C7          2.7230   -1.0638   -2.4313 C.ar      1 <0>        -0.1655
     11 C8          1.9886   -1.3949   -3.5714 C.ar      1 <0>        -0.0507
     12 C9          2.6404   -1.8386   -4.7031 C.ar      1 <0>        -0.1514
     13 C10         4.0192   -1.9564   -4.7099 C.ar      1 <0>         0.0036
     14 C11         4.7529   -1.6299   -3.5834 C.ar      1 <0>        -0.6226
     15 C12         4.1137   -1.1793   -2.4467 C.ar      1 <0>         0.0386
     16 S1          6.5080   -1.7840   -3.6024 S.o2      1 <0>         2.6017
     17 O2          6.9170   -1.9368   -2.2502 O.2       1 <0>        -1.0212
     18 O3          6.8209   -2.7404   -4.6057 O.2       1 <0>        -1.0248
     19 N2          7.1211   -0.3358   -4.1215 N.2       1 <0>        -1.0833
     20 C13         8.5028   -0.1631   -4.2367 C.ar      1 <0>         0.2934
     21 C14         9.3632   -1.2071   -3.9217 C.ar      1 <0>        -0.2608
     22 C15        10.7285   -1.0335   -4.0365 C.ar      1 <0>        -0.0330
     23 C16        11.2395    0.1790   -4.4644 C.ar      1 <0>        -0.1891
     24 C17        10.3849    1.2207   -4.7789 C.ar      1 <0>        -0.0484
     25 C18         9.0184    1.0510   -4.6719 C.ar      1 <0>        -0.1775
     26 Br1        13.1095    0.4131   -4.6191 Br        1 <0>        -0.1007
     27 H2          1.0039    1.9031    0.0027 H         1 <0>         0.0622
     28 H3         -0.5459    1.8868   -0.8726 H         1 <0>         0.0595
     29 H4         -0.5289    1.8773    0.9072 H         1 <0>         0.0677
     30 H5         -1.4185   -1.6235    0.0069 H         1 <0>         0.0759
     31 H6         -2.1642    1.0497    1.2777 H         1 <0>         0.0618
     32 H7         -3.1720   -0.4175    1.2794 H         1 <0>         0.0580
     33 H8         -1.6223   -0.4013    2.1547 H         1 <0>         0.0580
     34 H9         -3.1959   -0.4041   -1.2189 H         1 <0>         0.0583
     35 H10        -2.1881    1.0631   -1.2207 H         1 <0>         0.0630
     36 H11        -1.6631   -0.3783   -2.1234 H         1 <0>         0.0517
     37 H12         0.1751   -0.7099   -1.9930 H         1 <0>         0.3970
     38 H13         0.9124   -1.3041   -3.5672 H         1 <0>         0.1257
     39 H14         2.0734   -2.0951   -5.5858 H         1 <0>         0.1347
     40 H15         4.5247   -2.3050   -5.5983 H         1 <0>         0.1432
     41 H16         4.6879   -0.9208   -1.5693 H         1 <0>         0.1504
     42 H17         8.9649   -2.1535   -3.5870 H         1 <0>         0.1049
     43 H18        11.3979   -1.8448   -3.7917 H         1 <0>         0.1124
     44 H19        10.7866    2.1662   -5.1123 H         1 <0>         0.1151
     45 H20         8.3517    1.8630   -4.9218 H         1 <0>         0.1211
@<TRIPOS>BOND
     1    1    2 1
     2    1   27 1
     3    1   28 1
     4    1   29 1
     5    2    3 1
     6    2    4 1
     7    2    7 1
     8    4    5 1
     9    4    6 1
    10    4   30 1
    11    5   31 1
    12    5   32 1
    13    5   33 1
    14    6   34 1
    15    6   35 1
    16    6   36 1
    17    7    8 am
    18    7   37 1
    19    8    9 2
    20    8   10 1
    21   10   15 ar
    22   10   11 ar
    23   11   12 ar
    24   11   38 1
    25   12   13 ar
    26   12   39 1
    27   13   14 ar
    28   13   40 1
    29   14   15 ar
    30   14   16 1
    31   15   41 1
    32   16   17 2
    33   16   18 2
    34   16   19 1
    35   19   20 1
    36   20   25 ar
    37   20   21 ar
    38   21   22 ar
    39   21   42 1
    40   22   23 ar
    41   22   43 1
    42   23   24 ar
    43   23   26 1
    44   24   25 ar
    45   24   44 1
    46   25   45 1
@<TRIPOS>MOLECULE
ZINC58059550
   40    42     0     0     0
SMALL
USER_CHARGES

@<TRIPOS>ATOM
      1 C1          1.7653    1.1369   -0.7027 C.3       1 <0>        -0.1146
      2 C2          1.1866   -0.2606   -0.4728 C.3       1 <0>        -0.1160
      3 C3          2.1680   -1.3849   -0.1354 C.3       1 <0>        -0.1487
      4 C4          1.2449   -0.8243    0.9483 C.3       1 <0>        -0.1955
      5 C5          1.8679    0.0395    2.0145 C.2       1 <0>         0.5429
      6 O1          2.2996    1.1368    1.7305 O.2       1 <0>        -0.5155
      7 N1          1.9455   -0.4074    3.2837 N.am      1 <0>        -0.6668
      8 C6          2.6100    0.3521    4.2537 C.ar      1 <0>         0.1165
      9 C7          2.5493    1.7390    4.2132 C.ar      1 <0>        -0.0703
     10 C8          3.2058    2.4859    5.1712 C.ar      1 <0>        -0.1206
     11 C9          3.9243    1.8536    6.1710 C.ar      1 <0>         0.0488
     12 C10         3.9864    0.4720    6.2137 C.ar      1 <0>        -0.5948
     13 C11         3.3263   -0.2799    5.2613 C.ar      1 <0>        -0.0425
     14 S1          4.9021   -0.3290    7.4882 S.o2      1 <0>         2.5999
     15 O2          4.4968    0.2646    8.7140 O.2       1 <0>        -1.0107
     16 O3          4.7978   -1.7255    7.2469 O.2       1 <0>        -1.0295
     17 N2          6.4945    0.0709    7.2723 N.2       1 <0>        -1.0594
     18 C12         7.4647   -0.4268    8.1464 C.ar      1 <0>         0.2904
     19 C13         7.0958   -1.2616    9.1933 C.ar      1 <0>        -0.2573
     20 C14         8.0571   -1.7522   10.0552 C.ar      1 <0>        -0.0629
     21 C15         9.3859   -1.4130    9.8774 C.ar      1 <0>        -0.2202
     22 C16         9.7575   -0.5822    8.8365 C.ar      1 <0>        -0.0707
     23 C17         8.8016   -0.0922    7.9667 C.ar      1 <0>        -0.0932
     24 Cl1         9.2694    0.9455    6.6560 Cl        1 <0>        -0.0915
     25 Cl2         4.7495    2.7955    7.3733 Cl        1 <0>        -0.0291
     26 H1          2.8217    1.1414   -0.4342 H         1 <0>         0.0654
     27 H2          1.6563    1.4070   -1.7531 H         1 <0>         0.0500
     28 H3          1.2302    1.8579   -0.0847 H         1 <0>         0.0678
     29 H4          0.3182   -0.5156   -1.0802 H         1 <0>         0.1123
     30 H5          1.9454   -2.3798   -0.5210 H         1 <0>         0.1061
     31 H6          3.2259   -1.1289   -0.0773 H         1 <0>         0.1022
     32 H7          0.4150   -1.4505    1.2758 H         1 <0>         0.1260
     33 H8          1.5407   -1.2552    3.5250 H         1 <0>         0.4126
     34 H9          1.9894    2.2329    3.4328 H         1 <0>         0.1489
     35 H10         3.1590    3.5645    5.1402 H         1 <0>         0.1404
     36 H11         3.3714   -1.3583    5.2976 H         1 <0>         0.1484
     37 H12         6.0582   -1.5265    9.3335 H         1 <0>         0.1029
     38 H13         7.7705   -2.4014   10.8693 H         1 <0>         0.1062
     39 H14        10.1352   -1.7977   10.5535 H         1 <0>         0.1089
     40 H15        10.7961   -0.3190    8.7007 H         1 <0>         0.1133
@<TRIPOS>BOND
     1    1    2 1
     2    1   26 1
     3    1   27 1
     4    1   28 1
     5    2    4 1
     6    2    3 1
     7    2   29 1
     8    3    4 1
     9    3   30 1
    10    3   31 1
    11    4    5 1
    12    4   32 1
    13    5    6 2
    14    5    7 am
    15    7    8 1
    16    7   33 1
    17    8   13 ar
    18    8    9 ar
    19    9   10 ar
    20    9   34 1
    21   10   11 ar
    22   10   35 1
    23   11   12 ar
    24   11   25 1
    25   12   13 ar
    26   12   14 1
    27   13   36 1
    28   14   15 2
    29   14   16 2
    30   14   17 1
    31   17   18 1
    32   18   23 ar
    33   18   19 ar
    34   19   20 ar
    35   19   37 1
    36   20   21 ar
    37   20   38 1
    38   21   22 ar
    39   21   39 1
    40   22   23 ar
    41   22   40 1
    42   23   24 1
@<TRIPOS>MOLECULE
ZINC04905125
   52    55     0     0     0
SMALL
USER_CHARGES
6-(3,3-diphenylpropylcarbamoyl)bicyclo[2.2.1]hept-2-ene-5-carboxylic acid
@<TRIPOS>ATOM
      1 C1          8.5166    4.3905    1.3738 C.ar      1 <0>        -0.1268
      2 C2          7.2906    4.7129    1.9250 C.ar      1 <0>        -0.1195
      3 C3          6.1846    3.9281    1.6573 C.ar      1 <0>        -0.1124
      4 C4          6.3047    2.8205    0.8389 C.ar      1 <0>        -0.0635
      5 C5          7.5319    2.4948    0.2924 C.ar      1 <0>        -0.1129
      6 C6          8.6368    3.2827    0.5558 C.ar      1 <0>        -0.1189
      7 C7          5.0990    1.9646    0.5475 C.3       1 <0>        -0.0079
      8 C8          3.9575    2.8477    0.0394 C.3       1 <0>        -0.1190
      9 C9          2.7767    1.9669   -0.3740 C.3       1 <0>         0.1343
     10 N1          1.6837    2.8124   -0.8605 N.am      1 <0>        -0.7248
     11 C10         0.5333    2.2506   -1.2818 C.2       1 <0>         0.5422
     12 O1          0.4030    1.0450   -1.2581 O.2       1 <0>        -0.5309
     13 C11        -0.5887    3.1199   -1.7881 C.3       1 <0>        -0.0985
     14 H1         -0.7982    3.9232   -1.0817 H         1 <0>         0.0808
     15 C12        -1.8713    2.2665   -2.0454 C.3       1 <0>        -0.0545
     16 H2         -2.4481    1.9842   -1.1647 H         1 <0>         0.0939
     17 C13        -2.5886    3.1551   -3.1290 C.3       1 <0>        -0.1203
     18 C14        -1.3594    3.1193   -4.1091 C.3       1 <0>        -0.0637
     19 H3         -1.4887    3.6105   -5.0736 H         1 <0>         0.0893
     20 C15        -0.2430    3.6977   -3.1823 C.3       1 <0>        -0.1266
     21 H4         -0.2840    4.7868   -3.1667 H         1 <0>         0.0729
     22 C16         1.1156    3.2237   -3.6302 C.2       1 <0>         0.4663
     23 O2          1.3185    2.0447   -3.7997 O.co2     1 <0>        -0.6052
     24 C17        -1.0707    1.6136   -4.1459 C.2       1 <0>        -0.1286
     25 C18        -1.3537    1.1062   -2.9629 C.2       1 <0>        -0.1484
     26 C19         4.6666    1.2603    1.8077 C.ar      1 <0>        -0.0629
     27 C20         4.1558    1.9884    2.8659 C.ar      1 <0>        -0.1129
     28 C21         3.7546    1.3418    4.0200 C.ar      1 <0>        -0.1194
     29 C22         3.8736   -0.0318    4.1196 C.ar      1 <0>        -0.1269
     30 C23         4.3896   -0.7593    3.0635 C.ar      1 <0>        -0.1178
     31 C24         4.7859   -0.1133    1.9075 C.ar      1 <0>        -0.1126
     32 H5          9.3806    5.0039    1.5826 H         1 <0>         0.1181
     33 H6          7.1967    5.5782    2.5644 H         1 <0>         0.1195
     34 H7          5.2267    4.1800    2.0879 H         1 <0>         0.1220
     35 H8          7.6267    1.6270   -0.3434 H         1 <0>         0.1219
     36 H9          9.5948    3.0306    0.1255 H         1 <0>         0.1199
     37 H10         5.3530    1.2260   -0.2127 H         1 <0>         0.0909
     38 H11         4.2992    3.4243   -0.8201 H         1 <0>         0.0817
     39 H12         3.6439    3.5275    0.8316 H         1 <0>         0.0677
     40 H13         2.4350    1.3903    0.4856 H         1 <0>         0.0576
     41 H14         3.0904    1.2871   -1.1661 H         1 <0>         0.0633
     42 H15         1.7879    3.7766   -0.8794 H         1 <0>         0.3964
     43 H16        -2.8041    4.1601   -2.7661 H         1 <0>         0.0680
     44 H17        -3.4710    2.6716   -3.5482 H         1 <0>         0.0716
     45 H18        -0.6986    1.0625   -4.9968 H         1 <0>         0.1136
     46 H19        -1.2529    0.0688   -2.6801 H         1 <0>         0.1173
     47 H20         4.0667    3.0620    2.7896 H         1 <0>         0.1212
     48 H21         3.3518    1.9102    4.8452 H         1 <0>         0.1187
     49 H22         3.5636   -0.5366    5.0227 H         1 <0>         0.1176
     50 H23         4.4829   -1.8324    3.1415 H         1 <0>         0.1196
     51 H24         5.1891   -0.6816    1.0824 H         1 <0>         0.1215
     52 O3          2.1003    4.1113   -3.8408 O.co2     1 <0>        -0.7731
@<TRIPOS>BOND
     1    1    6 ar
     2    1    2 ar
     3    1   32 1
     4    2    3 ar
     5    2   33 1
     6    3    4 ar
     7    3   34 1
     8    4    5 ar
     9    4    7 1
    10    5    6 ar
    11    5   35 1
    12    6   36 1
    13    7    8 1
    14    7   26 1
    15    7   37 1
    16    8    9 1
    17    8   38 1
    18    8   39 1
    19    9   10 1
    20    9   40 1
    21    9   41 1
    22   10   11 am
    23   10   42 1
    24   11   12 2
    25   11   13 1
    26   13   14 1
    27   13   20 1
    28   13   15 1
    29   15   16 1
    30   15   25 1
    31   15   17 1
    32   17   18 1
    33   17   43 1
    34   17   44 1
    35   18   19 1
    36   18   20 1
    37   18   24 1
    38   20   21 1
    39   20   22 1
    40   22   23 2
    41   22   52 1
    42   24   25 2
    43   24   45 1
    44   25   46 1
    45   26   31 ar
    46   26   27 ar
    47   27   28 ar
    48   27   47 1
    49   28   29 ar
    50   28   48 1
    51   29   30 ar
    52   29   49 1
    53   30   31 ar
    54   30   50 1
    55   31   51 1
@<TRIPOS>MOLECULE
ZINC13423794
   63    66     0     0     0
SMALL
USER_CHARGES
(4S)-4-[(3R,5R,8S,10S,13R,14R,17S)-3-hydroxy-10,13-dimethyl-12-oxo-1,2,3,4,5,6,7,8,14,15,16,17-dodecahydrocyclopenta[a]phenanthren-17-yl]pentanoic acid
@<TRIPOS>ATOM
      1 C1          2.5018   -1.5661   -2.4950 C.3       1 <0>        -0.1335
      2 C2          1.1480   -1.2628   -1.8500 C.3       1 <0>        -0.0873
      3 H1          0.5257   -0.7105   -2.5540 H         1 <0>         0.1115
      4 C3          0.4551   -2.5751   -1.4775 C.3       1 <0>        -0.0976
      5 C4          0.1303   -3.3595   -2.7504 C.3       1 <0>        -0.1529
      6 C5         -0.5521   -4.6521   -2.3835 C.2       1 <0>         0.4569
      7 O1         -0.7577   -4.9185   -1.2231 O.co2     1 <0>        -0.6446
      8 C6          1.3606   -0.4226   -0.5891 C.3       1 <0>        -0.0739
      9 H2          1.8655   -1.0151    0.1739 H         1 <0>         0.0751
     10 C7          0.0073    0.0821   -0.0563 C.3       1 <0>        -0.1248
     11 C8          0.0780    1.6255   -0.0623 C.3       1 <0>        -0.1201
     12 C9          1.5899    1.9232   -0.0184 C.3       1 <0>        -0.0694
     13 H3          1.9488    1.7751    1.0001 H         1 <0>         0.0819
     14 C10         2.1974    0.8376   -0.9236 C.3       1 <0>        -0.0904
     15 C11         1.9090    1.1845   -2.3700 C.2       1 <0>         0.3673
     16 O2          1.5198    0.3384   -3.1477 O.2       1 <0>        -0.4065
     17 C12         2.0719    2.5829   -2.7960 C.2       1 <0>        -0.2365
     18 C13         2.0854    3.5622   -1.8959 C.2       1 <0>        -0.0263
     19 C14         1.9095    3.3310   -0.4275 C.3       1 <0>        -0.0480
     20 H4          2.8542    3.5925    0.0492 H         1 <0>         0.0801
     21 C15         0.8583    4.3034    0.1167 C.3       1 <0>        -0.1172
     22 C16         1.2358    5.7373   -0.2619 C.3       1 <0>        -0.1184
     23 C17         1.1968    5.8677   -1.7897 C.3       1 <0>        -0.0700
     24 H5          1.3655    6.9061   -2.0752 H         1 <0>         0.0756
     25 C18         2.2975    4.9832   -2.3812 C.3       1 <0>        -0.0270
     26 C19         2.2425    5.0187   -3.9057 C.3       1 <0>        -0.1085
     27 C20         0.8920    4.5700   -4.4082 C.3       1 <0>        -0.1718
     28 C21        -0.1947    5.4825   -3.8345 C.3       1 <0>         0.1090
     29 H6         -0.0106    6.5097   -4.1492 H         1 <0>         0.0494
     30 C22        -0.1672    5.4039   -2.3078 C.3       1 <0>        -0.1130
     31 O3         -1.4739    5.0597   -4.3109 O.3       1 <0>        -0.5667
     32 C23         3.6636    5.4848   -1.9089 C.3       1 <0>        -0.1411
     33 C24         3.6911    0.6320   -0.6638 C.3       1 <0>        -0.1310
     34 H7          2.3504   -2.1647   -3.3933 H         1 <0>         0.0516
     35 H8          2.9955   -0.6313   -2.7604 H         1 <0>         0.0558
     36 H9          3.1242   -2.1185   -1.7910 H         1 <0>         0.0337
     37 H10         1.1154   -3.1676   -0.8441 H         1 <0>         0.0509
     38 H11        -0.4674   -2.3587   -0.9388 H         1 <0>         0.0549
     39 H12        -0.5299   -2.7671   -3.3838 H         1 <0>         0.0586
     40 H13         1.0528   -3.5759   -3.2891 H         1 <0>         0.0619
     41 H14        -0.1529   -0.2803    0.9591 H         1 <0>         0.0652
     42 H15        -0.7997   -0.2571   -0.7058 H         1 <0>         0.0715
     43 H16        -0.3648    2.0257   -0.9744 H         1 <0>         0.0636
     44 H17        -0.4186    2.0351    0.8173 H         1 <0>         0.0688
     45 H18         2.2104    2.8103   -3.8427 H         1 <0>         0.1396
     46 H19        -0.1172    4.0532   -0.3002 H         1 <0>         0.0767
     47 H20         0.8186    4.2235    1.2030 H         1 <0>         0.0677
     48 H21         2.2389    5.9665    0.0977 H         1 <0>         0.0715
     49 H22         0.5224    6.4321    0.1812 H         1 <0>         0.0670
     50 H23         2.4072    6.0396   -4.2503 H         1 <0>         0.0656
     51 H24         3.0196    4.3710   -4.3113 H         1 <0>         0.0721
     52 H25         0.7161    3.5448   -4.0824 H         1 <0>         0.0905
     53 H26         0.8681    4.6154   -5.4970 H         1 <0>         0.0653
     54 H27        -0.3430    4.3748   -1.9946 H         1 <0>         0.0796
     55 H28        -0.9477    6.0449   -1.8978 H         1 <0>         0.0682
     56 H29        -1.5628    5.0840   -5.2735 H         1 <0>         0.3772
     57 H30         4.4460    4.8423   -2.3127 H         1 <0>         0.0590
     58 H31         3.8161    6.5062   -2.2577 H         1 <0>         0.0601
     59 H32         3.7018    5.4633   -0.8197 H         1 <0>         0.0639
     60 H33         4.0632   -0.1716   -1.2993 H         1 <0>         0.0700
     61 H34         4.2293    1.5526   -0.8895 H         1 <0>         0.0562
     62 H35         3.8450    0.3685    0.3826 H         1 <0>         0.0654
     63 O4         -0.9317   -5.5073   -3.3459 O.co2     1 <0>        -0.7825
@<TRIPOS>BOND
     1    1    2 1
     2    1   34 1
     3    1   35 1
     4    1   36 1
     5    2    3 1
     6    2    4 1
     7    2    8 1
     8    4    5 1
     9    4   37 1
    10    4   38 1
    11    5    6 1
    12    5   39 1
    13    5   40 1
    14    6    7 2
    15    6   63 1
    16    8    9 1
    17    8   14 1
    18    8   10 1
    19   10   11 1
    20   10   41 1
    21   10   42 1
    22   11   12 1
    23   11   43 1
    24   11   44 1
    25   12   13 1
    26   12   19 1
    27   12   14 1
    28   14   15 1
    29   14   33 1
    30   15   16 2
    31   15   17 1
    32   17   18 2
    33   17   45 1
    34   18   25 1
    35   18   19 1
    36   19   20 1
    37   19   21 1
    38   21   22 1
    39   21   46 1
    40   21   47 1
    41   22   23 1
    42   22   48 1
    43   22   49 1
    44   23   24 1
    45   23   30 1
    46   23   25 1
    47   25   26 1
    48   25   32 1
    49   26   27 1
    50   26   50 1
    51   26   51 1
    52   27   28 1
    53   27   52 1
    54   27   53 1
    55   28   29 1
    56   28   30 1
    57   28   31 1
    58   30   54 1
    59   30   55 1
    60   31   56 1
    61   32   57 1
    62   32   58 1
    63   32   59 1
    64   33   60 1
    65   33   61 1
    66   33   62 1
@<TRIPOS>MOLECULE
ZINC03637988
   45    47     0     0     0
SMALL
USER_CHARGES

@<TRIPOS>ATOM
      1 C1          0.1778    1.4158    0.0849 C.3       1 <0>        -0.1111
      2 C2          0.0841   -0.0878    0.0469 C.2       1 <0>        -0.1342
      3 C3         -0.0865   -0.6564   -1.1034 C.2       1 <0>        -0.1310
      4 C4         -0.2085   -2.1394   -1.2984 C.3       1 <0>        -0.0504
      5 C5          0.3117   -2.8779   -0.0633 C.3       1 <0>        -0.1353
      6 C6         -0.3366   -2.2584    1.1813 C.3       1 <0>        -0.0150
      7 H1         -1.4192   -2.2339    1.0567 H         1 <0>         0.0899
      8 C7          0.2004   -0.8331    1.3442 C.3       1 <0>        -0.0779
      9 C8          0.0151   -3.0774    2.3965 C.ar      1 <0>        -0.0502
     10 C9          1.2984   -3.0380    2.9088 C.ar      1 <0>        -0.1383
     11 C10         1.6209   -3.7892    4.0235 C.ar      1 <0>        -0.1408
     12 C11         0.6601   -4.5794    4.6261 C.ar      1 <0>        -0.1280
     13 C12        -0.6235   -4.6181    4.1143 C.ar      1 <0>        -0.1338
     14 C13        -0.9471   -3.8636    3.0022 C.ar      1 <0>        -0.0365
     15 C14         1.8094   -2.7330    0.0203 C.2       1 <0>         0.5696
     16 O1          2.3639   -1.8221   -0.5584 O.2       1 <0>        -0.5090
     17 N1          2.5328   -3.6151    0.7379 N.am      1 <0>        -0.5630
     18 N2          3.9251   -3.4803    0.8156 N.2       1 <0>        -0.2080
     19 C15         4.6233   -4.3316    1.5081 C.2       1 <0>         0.1117
     20 C16         6.0807   -4.1905    1.5895 C.2       1 <0>        -0.0981
     21 C17         6.9980   -4.9815    2.2594 C.2       1 <0>        -0.1397
     22 C18         8.3292   -4.6431    2.1864 C.2       1 <0>        -0.1562
     23 C19         8.6997   -3.5528    1.4655 C.2       1 <0>        -0.1925
     24 S1          7.1357   -2.9582    0.8438 S.3       1 <0>         0.1050
     25 C20        -0.0560   -4.3366   -0.1531 C.2       1 <0>         0.5005
     26 O2          0.3452   -5.0101   -1.0869 O.co2     1 <0>        -0.6813
     27 O3         -0.7547   -4.8433    0.7081 O.co2     1 <0>        -0.6642
     28 H2          1.2185    1.7180   -0.0318 H         1 <0>         0.0599
     29 H3         -0.4162    1.8375   -0.7260 H         1 <0>         0.0564
     30 H4         -0.2013    1.7794    1.0400 H         1 <0>         0.0546
     31 H5         -0.1451   -0.0242   -1.9770 H         1 <0>         0.0990
     32 H6         -1.2550   -2.3977   -1.4598 H         1 <0>         0.0771
     33 H7          0.3739   -2.4382   -2.1700 H         1 <0>         0.0775
     34 H8          1.2467   -0.8698    1.6473 H         1 <0>         0.0687
     35 H9         -0.3777   -0.3168    2.1106 H         1 <0>         0.0686
     36 H10         2.0491   -2.4206    2.4380 H         1 <0>         0.1158
     37 H11         2.6237   -3.7589    4.4233 H         1 <0>         0.1094
     38 H12         0.9123   -5.1669    5.4966 H         1 <0>         0.1105
     39 H13        -1.3741   -5.2358    4.5849 H         1 <0>         0.1131
     40 H14        -1.9509   -3.8909    2.6045 H         1 <0>         0.1208
     41 H15         2.0895   -4.3433    1.2006 H         1 <0>         0.3987
     42 H16         4.1296   -5.1424    2.0232 H         1 <0>         0.1330
     43 H17         6.6764   -5.8429    2.8259 H         1 <0>         0.1380
     44 H18         9.0721   -5.2378    2.6971 H         1 <0>         0.1331
     45 H19         9.6893   -3.1507    1.3057 H         1 <0>         0.1838
@<TRIPOS>BOND
     1    1    2 1
     2    1   28 1
     3    1   29 1
     4    1   30 1
     5    2    8 1
     6    2    3 2
     7    3    4 1
     8    3   31 1
     9    4    5 1
    10    4   32 1
    11    4   33 1
    12    5    6 1
    13    5   15 1
    14    5   25 1
    15    6    7 1
    16    6    8 1
    17    6    9 1
    18    8   34 1
    19    8   35 1
    20    9   14 ar
    21    9   10 ar
    22   10   11 ar
    23   10   36 1
    24   11   12 ar
    25   11   37 1
    26   12   13 ar
    27   12   38 1
    28   13   14 ar
    29   13   39 1
    30   14   40 1
    31   15   16 2
    32   15   17 am
    33   17   18 1
    34   17   41 1
    35   18   19 2
    36   19   20 1
    37   19   42 1
    38   20   24 1
    39   20   21 2
    40   21   22 1
    41   21   43 1
    42   22   23 2
    43   22   44 1
    44   23   24 1
    45   23   45 1
    46   25   26 2
    47   25   27 1
@<TRIPOS>MOLECULE
ZINC43726823
   65    68     0     0     0
SMALL
USER_CHARGES

@<TRIPOS>ATOM
      1 C1          0.9925   -0.2584   -1.1656 C.3       1 <0>        -0.1473
      2 C2          0.0800    0.0389    0.0259 C.3       1 <0>        -0.0909
      3 H1         -0.0074    1.1175    0.1564 H         1 <0>         0.0682
      4 C3         -1.3053   -0.5576   -0.2313 C.3       1 <0>        -0.0938
      5 C4         -1.9184    0.0934   -1.4727 C.3       1 <0>        -0.1859
      6 C5         -3.2828   -0.4941   -1.7260 C.2       1 <0>         0.4877
      7 O1         -3.7240   -1.3539   -0.9825 O.co2     1 <0>        -0.6993
      8 O2         -3.9456   -0.1097   -2.6744 O.co2     1 <0>        -0.7117
      9 C6          0.6754   -0.5814    1.2915 C.3       1 <0>        -0.0736
     10 H2          1.7124   -0.2670    1.4099 H         1 <0>         0.0680
     11 C7          0.5935   -2.1174    1.2168 C.3       1 <0>        -0.1271
     12 C8         -0.3151   -2.5684    2.3839 C.3       1 <0>        -0.1160
     13 C9         -1.1600   -1.3168    2.6847 C.3       1 <0>        -0.0872
     14 H3         -1.9355   -1.2183    1.9252 H         1 <0>         0.1035
     15 C10        -0.1547   -0.1595    2.5333 C.3       1 <0>        -0.0348
     16 C11         0.8143   -0.1263    3.7178 C.3       1 <0>         0.1196
     17 H4          1.4357   -1.0216    3.6984 H         1 <0>         0.0494
     18 C12         0.0517   -0.0726    5.0389 C.3       1 <0>        -0.1501
     19 C13        -0.7874   -1.3479    5.1716 C.3       1 <0>        -0.0670
     20 H5         -0.1411   -2.2222    5.0946 H         1 <0>         0.0736
     21 C14        -1.8043   -1.3640    4.0484 C.3       1 <0>        -0.0725
     22 H6         -2.4505   -0.4927    4.1548 H         1 <0>         0.0725
     23 C15        -2.6728   -2.6158    4.1892 C.3       1 <0>        -0.1216
     24 C16        -3.3756   -2.6037    5.5483 C.3       1 <0>        -0.1166
     25 C17        -2.3235   -2.5835    6.6620 C.3       1 <0>        -0.0616
     26 H7         -2.8174   -2.6004    7.6336 H         1 <0>         0.0740
     27 C18        -1.4959   -1.3486    6.5273 C.3       1 <0>        -0.0514
     28 C19        -0.4650   -1.2968    7.6536 C.3       1 <0>        -0.1036
     29 C20         0.4950   -2.4839    7.5246 C.3       1 <0>        -0.1772
     30 C21        -0.3217   -3.7568    7.4839 C.2       1 <0>         0.3694
     31 O3         -0.0728   -4.6766    8.2258 O.2       1 <0>        -0.4646
     32 C22        -1.4245   -3.8172    6.5187 C.3       1 <0>        -0.1815
     33 C23        -2.3971   -0.1163    6.6275 C.3       1 <0>        -0.1491
     34 O4          1.6494    1.0283    3.6103 O.3       1 <0>        -0.5622
     35 C24        -0.8573    1.1834    2.3235 C.3       1 <0>        -0.1384
     36 H8          1.1387   -1.3352   -1.2516 H         1 <0>         0.0502
     37 H9          0.5328    0.1199   -2.0787 H         1 <0>         0.0576
     38 H10         1.9563    0.2282   -1.0155 H         1 <0>         0.0427
     39 H11        -1.2142   -1.6319   -0.3918 H         1 <0>         0.0608
     40 H12        -1.9464   -0.3721    0.6305 H         1 <0>         0.0715
     41 H13        -2.0095    1.1677   -1.3121 H         1 <0>         0.0507
     42 H14        -1.2772   -0.0921   -2.3344 H         1 <0>         0.0553
     43 H15         0.1580   -2.4223    0.2652 H         1 <0>         0.0770
     44 H16         1.5876   -2.5503    1.3287 H         1 <0>         0.0514
     45 H17        -0.9526   -3.3971    2.0759 H         1 <0>         0.0663
     46 H18         0.2837   -2.8452    3.2517 H         1 <0>         0.0559
     47 H19         0.7580   -0.0115    5.8669 H         1 <0>         0.0618
     48 H20        -0.6030    0.7988    5.0483 H         1 <0>         0.0768
     49 H21        -3.4191   -2.6310    3.3949 H         1 <0>         0.0715
     50 H22        -2.0448   -3.5035    4.1134 H         1 <0>         0.0643
     51 H23        -4.0039   -1.7163    5.6251 H         1 <0>         0.0720
     52 H24        -3.9927   -3.4968    5.6468 H         1 <0>         0.0634
     53 H25         0.0980   -0.3657    7.5880 H         1 <0>         0.0771
     54 H26        -0.9753   -1.3453    8.6155 H         1 <0>         0.0656
     55 H27         1.0738   -2.3897    6.6057 H         1 <0>         0.0986
     56 H28         1.1677   -2.5068    8.3819 H         1 <0>         0.0838
     57 H29        -2.0040   -4.7177    6.7224 H         1 <0>         0.0862
     58 H30        -1.0209   -3.8601    5.5071 H         1 <0>         0.1124
     59 H31        -3.1381   -0.1421    5.8285 H         1 <0>         0.0687
     60 H32        -2.9034   -0.1140    7.5927 H         1 <0>         0.0520
     61 H33        -1.7917    0.7852    6.5326 H         1 <0>         0.0595
     62 H34         2.2915    1.1175    4.3278 H         1 <0>         0.3679
     63 H35        -1.4731    1.1348    1.4255 H         1 <0>         0.0716
     64 H36        -1.4879    1.4020    3.1852 H         1 <0>         0.0467
     65 H37        -0.1112    1.9699    2.2103 H         1 <0>         0.0599
@<TRIPOS>BOND
     1    1    2 1
     2    1   36 1
     3    1   37 1
     4    1   38 1
     5    2    3 1
     6    2    4 1
     7    2    9 1
     8    4    5 1
     9    4   39 1
    10    4   40 1
    11    5    6 1
    12    5   41 1
    13    5   42 1
    14    6    7 2
    15    6    8 1
    16    9   10 1
    17    9   15 1
    18    9   11 1
    19   11   12 1
    20   11   43 1
    21   11   44 1
    22   12   13 1
    23   12   45 1
    24   12   46 1
    25   13   14 1
    26   13   21 1
    27   13   15 1
    28   15   16 1
    29   15   35 1
    30   16   17 1
    31   16   18 1
    32   16   34 1
    33   18   19 1
    34   18   47 1
    35   18   48 1
    36   19   20 1
    37   19   27 1
    38   19   21 1
    39   21   22 1
    40   21   23 1
    41   23   24 1
    42   23   49 1
    43   23   50 1
    44   24   25 1
    45   24   51 1
    46   24   52 1
    47   25   26 1
    48   25   32 1
    49   25   27 1
    50   27   28 1
    51   27   33 1
    52   28   29 1
    53   28   53 1
    54   28   54 1
    55   29   30 1
    56   29   55 1
    57   29   56 1
    58   30   31 2
    59   30   32 1
    60   32   57 1
    61   32   58 1
    62   33   59 1
    63   33   60 1
    64   33   61 1
    65   34   62 1
    66   35   63 1
    67   35   64 1
    68   35   65 1
@<TRIPOS>MOLECULE
ZINC11918141
   41    44     0     0     0
SMALL
USER_CHARGES

@<TRIPOS>ATOM
      1 C1         -1.4155   -2.9322   -5.7564 C.3       1 <0>        -0.0752
      2 C2         -1.9548   -1.6658   -6.3698 C.2       1 <0>         0.1149
      3 C3         -1.6327   -0.4469   -5.8742 C.2       1 <0>        -0.2774
      4 S1         -2.5446    0.6155   -6.9819 S.3       1 <0>         0.0070
      5 C4         -3.2293   -0.5835   -7.9442 C.2       1 <0>         0.2795
      6 S2         -4.3077   -0.3966   -9.3250 S.3       1 <0>        -0.7478
      7 N1         -2.7584   -1.6950   -7.4182 N.2       1 <0>        -0.5752
      8 C5         -0.7484   -0.0869   -4.7083 C.3       1 <0>        -0.0205
      9 C6          0.6691    0.0898   -5.1886 C.2       1 <0>         0.5067
     10 O1          0.9350   -0.0617   -6.3623 O.2       1 <0>        -0.4922
     11 N2          1.6412    0.4162   -4.3141 N.am      1 <0>        -0.6784
     12 C7          2.9736    0.4856   -4.7416 C.ar      1 <0>         0.1665
     13 C8          3.9972    0.0933   -3.8895 C.ar      1 <0>        -0.1410
     14 C9          5.3126    0.1609   -4.3089 C.ar      1 <0>        -0.0818
     15 C10         5.6120    0.6190   -5.5797 C.ar      1 <0>         0.0058
     16 C11         4.5858    1.0130   -6.4384 C.ar      1 <0>         0.0528
     17 C12         3.2697    0.9414   -6.0195 C.ar      1 <0>        -0.1057
     18 O2          5.1461    1.4170   -7.6221 O.3       1 <0>        -0.2917
     19 C13         6.5038    1.7232   -7.2735 C.3       1 <0>         0.2535
     20 O3          6.8064    0.7823   -6.2336 O.3       1 <0>        -0.2950
     21 C14         6.6388    3.1662   -6.7764 C.3       1 <0>        -0.1591
     22 C15         8.0329    3.6104   -7.2918 C.3       1 <0>        -0.1198
     23 C16         8.1233    2.9250   -8.6789 C.3       1 <0>        -0.1227
     24 C17         7.4398    1.5547   -8.4703 C.3       1 <0>        -0.1178
     25 H1         -0.4714   -3.1939   -6.2341 H         1 <0>         0.0650
     26 H2         -1.2525   -2.7785   -4.6897 H         1 <0>         0.0608
     27 H3         -2.1325   -3.7403   -5.9016 H         1 <0>         0.0666
     28 H4         -1.0987    0.8429   -4.2600 H         1 <0>         0.1006
     29 H5         -0.7836   -0.8841   -3.9657 H         1 <0>         0.1067
     30 H6          1.4184    0.6030   -3.3887 H         1 <0>         0.4127
     31 H7          3.7654   -0.2649   -2.8973 H         1 <0>         0.1404
     32 H8          6.1073   -0.1444   -3.6443 H         1 <0>         0.1369
     33 H9          2.4735    1.2428   -6.6841 H         1 <0>         0.1528
     34 H10         5.8558    3.7926   -7.2038 H         1 <0>         0.0936
     35 H11         6.6052    3.2001   -5.6875 H         1 <0>         0.0834
     36 H12         8.0791    4.6947   -7.3936 H         1 <0>         0.0772
     37 H13         8.8214    3.2499   -6.6312 H         1 <0>         0.0743
     38 H14         7.5879    3.5082   -9.4281 H         1 <0>         0.0754
     39 H15         9.1648    2.7912   -8.9711 H         1 <0>         0.0779
     40 H16         8.1880    0.7914   -8.2565 H         1 <0>         0.0946
     41 H17         6.8684    1.2820   -9.3576 H         1 <0>         0.0957
@<TRIPOS>BOND
     1    1    2 1
     2    1   25 1
     3    1   26 1
     4    1   27 1
     5    2    7 1
     6    2    3 2
     7    3    4 1
     8    3    8 1
     9    4    5 1
    10    5    6 1
    11    5    7 2
    12    8    9 1
    13    8   28 1
    14    8   29 1
    15    9   10 2
    16    9   11 am
    17   11   12 1
    18   11   30 1
    19   12   17 ar
    20   12   13 ar
    21   13   14 ar
    22   13   31 1
    23   14   15 ar
    24   14   32 1
    25   15   20 1
    26   15   16 ar
    27   16   17 ar
    28   16   18 1
    29   17   33 1
    30   18   19 1
    31   19   24 1
    32   19   20 1
    33   19   21 1
    34   21   22 1
    35   21   34 1
    36   21   35 1
    37   22   23 1
    38   22   36 1
    39   22   37 1
    40   23   24 1
    41   23   38 1
    42   23   39 1
    43   24   40 1
    44   24   41 1
@<TRIPOS>MOLECULE
ZINC66004725
   46    49     0     0     0
SMALL
USER_CHARGES

@<TRIPOS>ATOM
      1 C1         -0.3598    1.4637   -0.1045 C.3       1 <0>        -0.1057
      2 C2         -0.4147   -0.0416   -0.1519 C.2       1 <0>         0.1087
      3 C3         -0.5612   -0.7726   -1.2682 C.2       1 <0>        -0.2300
      4 C4         -0.5621   -2.1799   -0.8613 C.ar      1 <0>        -0.1037
      5 C5         -0.6771   -3.3891   -1.5501 C.ar      1 <0>        -0.0824
      6 C6         -0.6396   -4.5682   -0.8610 C.ar      1 <0>        -0.1497
      7 C7         -0.4881   -4.5741    0.5190 C.ar      1 <0>        -0.1077
      8 C8         -0.3728   -3.3929    1.2182 C.ar      1 <0>        -0.1070
      9 C9         -0.4084   -2.1804    0.5369 C.ar      1 <0>         0.1035
     10 N1         -0.3167   -0.8658    0.9359 N.pl3     1 <0>        -0.4583
     11 C10        -0.1429   -0.4163    2.3194 C.3       1 <0>         0.0990
     12 C11        -1.4878   -0.0829    2.9119 C.2       1 <0>         0.3199
     13 O1         -2.0994    1.0685    2.5850 O.3       1 <0>        -0.6503
     14 C12        -2.0842   -0.9492    3.7797 C.2       1 <0>        -0.4252
     15 C13        -3.4189   -0.7010    4.2353 C.1       1 <0>         0.3305
     16 N2         -4.4778   -0.5041    4.5967 N.1       1 <0>        -0.5348
     17 C14        -1.3566   -2.1388    4.2480 C.2       1 <0>         0.5123
     18 O2         -0.3228   -2.0111    4.8790 O.2       1 <0>        -0.5010
     19 C15        -1.8771   -3.4815    3.9542 C.2       1 <0>        -0.2348
     20 C16        -1.3794   -4.6679    4.4087 C.2       1 <0>         0.1405
     21 N3         -2.1241   -5.6919    3.9263 N.pl3     1 <0>        -0.5833
     22 H1         -1.9624   -6.6299    4.1134 H         1 <0>         0.4116
     23 C17        -3.1452   -5.2123    3.1318 C.ar      1 <0>         0.0848
     24 C18        -3.0438   -3.8118    3.1154 C.ar      1 <0>        -0.0497
     25 C19        -3.9580   -3.0539    2.3885 C.ar      1 <0>        -0.0532
     26 C20        -4.9635   -3.6849    1.6886 C.ar      1 <0>        -0.1445
     27 C21        -5.0673   -5.0679    1.7067 C.ar      1 <0>        -0.1019
     28 C22        -4.1648   -5.8307    2.4161 C.ar      1 <0>        -0.1342
     29 C23        -0.1815   -4.8168    5.3109 C.3       1 <0>        -0.1058
     30 H2          0.6738    1.7931   -0.2105 H         1 <0>         0.0665
     31 H3         -0.9574    1.8748   -0.9182 H         1 <0>         0.0754
     32 H4         -0.7562    1.8119    0.8493 H         1 <0>         0.0966
     33 H5         -0.6596   -0.3949   -2.2752 H         1 <0>         0.1389
     34 H6         -0.7956   -3.3922   -2.6235 H         1 <0>         0.1124
     35 H7         -0.7290   -5.5032   -1.3941 H         1 <0>         0.1106
     36 H8         -0.4606   -5.5143    1.0497 H         1 <0>         0.1090
     37 H9         -0.2556   -3.4080    2.2917 H         1 <0>         0.1196
     38 H10         0.3248   -1.2093    2.9030 H         1 <0>         0.0971
     39 H11         0.4915    0.4699    2.3366 H         1 <0>         0.0927
     40 H12        -3.8797   -1.9768    2.3735 H         1 <0>         0.1301
     41 H13        -5.6742   -3.0999    1.1238 H         1 <0>         0.1175
     42 H14        -5.8596   -5.5521    1.1552 H         1 <0>         0.1195
     43 H15        -4.2554   -6.9068    2.4245 H         1 <0>         0.1136
     44 H16        -0.5119   -4.8642    6.3485 H         1 <0>         0.0783
     45 H17         0.3526   -5.7325    5.0574 H         1 <0>         0.0656
     46 H18         0.4811   -3.9614    5.1793 H         1 <0>         0.1090
@<TRIPOS>BOND
     1    1    2 1
     2    1   30 1
     3    1   31 1
     4    1   32 1
     5    2   10 1
     6    2    3 2
     7    3    4 1
     8    3   33 1
     9    4    9 ar
    10    4    5 ar
    11    5    6 ar
    12    5   34 1
    13    6    7 ar
    14    6   35 1
    15    7    8 ar
    16    7   36 1
    17    8    9 ar
    18    8   37 1
    19    9   10 1
    20   10   11 1
    21   11   12 1
    22   11   38 1
    23   11   39 1
    24   12   13 1
    25   12   14 2
    26   14   15 1
    27   14   17 1
    28   15   16 3
    29   17   18 2
    30   17   19 1
    31   19   24 1
    32   19   20 2
    33   20   21 1
    34   20   29 1
    35   21   22 1
    36   21   23 1
    37   23   28 ar
    38   23   24 ar
    39   24   25 ar
    40   25   26 ar
    41   25   40 1
    42   26   27 ar
    43   26   41 1
    44   27   28 ar
    45   27   42 1
    46   28   43 1
    47   29   44 1
    48   29   45 1
    49   29   46 1
@<TRIPOS>MOLECULE
ZINC13260519
   37    39     0     0     0
SMALL
USER_CHARGES
5-bromo-2-[[(E)-3-(2,3-dihydrobenzofuran-5-yl)prop-2-enoyl]amino]benzoic acid
@<TRIPOS>ATOM
      1 C1          1.1801    1.7572    0.0598 C.ar      1 <0>        -0.0641
      2 C2         -0.0018    1.0556    0.0827 C.ar      1 <0>        -0.1373
      3 C3         -1.2243    1.7289    0.0931 C.ar      1 <0>         0.1122
      4 C4         -1.2317    3.1215    0.1003 C.ar      1 <0>        -0.1804
      5 C5         -0.0590    3.8337    0.0747 C.ar      1 <0>        -0.0463
      6 C6          1.1673    3.1568    0.0533 C.ar      1 <0>        -0.0961
      7 C7          2.4294    3.9097    0.0248 C.2       1 <0>        -0.0240
      8 C8          3.6079    3.2512    0.0047 C.2       1 <0>        -0.1965
      9 C9          4.8632    4.0001   -0.0236 C.2       1 <0>         0.5445
     10 O1          4.8458    5.2172   -0.0291 O.2       1 <0>        -0.5432
     11 N1          6.0397    3.3428   -0.0437 N.am      1 <0>        -0.6376
     12 C10         7.2307    4.0518   -0.1652 C.ar      1 <0>         0.1909
     13 C11         7.3644    5.2991    0.4310 C.ar      1 <0>        -0.1356
     14 C12         8.5465    6.0006    0.3098 C.ar      1 <0>        -0.0753
     15 C13         9.6083    5.4686   -0.4061 C.ar      1 <0>        -0.1215
     16 C14         9.4938    4.2325   -1.0055 C.ar      1 <0>        -0.0290
     17 C15         8.3049    3.5076   -0.8861 C.ar      1 <0>        -0.1400
     18 C16         8.1780    2.1826   -1.5183 C.2       1 <0>         0.4973
     19 O2          7.1119    1.5998   -1.4989 O.co2     1 <0>        -0.6301
     20 Br1        11.2209    6.4438   -0.5613 Br        1 <0>        -0.0711
     21 C17        -2.6842    3.5569    0.1382 C.3       1 <0>        -0.1096
     22 C18        -3.3989    2.2497    0.5546 C.3       1 <0>         0.0511
     23 O3         -2.4904    1.2314    0.1028 O.3       1 <0>        -0.3043
     24 H1          2.1210    1.2272    0.0464 H         1 <0>         0.1416
     25 H2          0.0157   -0.0243    0.0882 H         1 <0>         0.1327
     26 H3         -0.0814    4.9135    0.0714 H         1 <0>         0.1306
     27 H4          2.4140    4.9895    0.0199 H         1 <0>         0.1365
     28 H5          3.6233    2.1713    0.0096 H         1 <0>         0.1338
     29 H6          6.0561    2.3755    0.0266 H         1 <0>         0.4268
     30 H7          6.5422    5.7202    0.9906 H         1 <0>         0.1445
     31 H8          8.6454    6.9699    0.7757 H         1 <0>         0.1287
     32 H9         10.3237    3.8225   -1.5619 H         1 <0>         0.1439
     33 H10        -2.8373    4.3386    0.8823 H         1 <0>         0.0923
     34 H11        -3.0176    3.8875   -0.8455 H         1 <0>         0.0912
     35 H12        -3.5218    2.2048    1.6367 H         1 <0>         0.0777
     36 H13        -4.3616    2.1589    0.0516 H         1 <0>         0.1066
     37 O4          9.2441    1.6172   -2.1180 O.co2     1 <0>        -0.7411
@<TRIPOS>BOND
     1    1    6 ar
     2    1    2 ar
     3    1   24 1
     4    2    3 ar
     5    2   25 1
     6    3   23 1
     7    3    4 ar
     8    4    5 ar
     9    4   21 1
    10    5    6 ar
    11    5   26 1
    12    6    7 1
    13    7    8 2
    14    7   27 1
    15    8    9 1
    16    8   28 1
    17    9   10 2
    18    9   11 am
    19   11   12 1
    20   11   29 1
    21   12   17 ar
    22   12   13 ar
    23   13   14 ar
    24   13   30 1
    25   14   15 ar
    26   14   31 1
    27   15   16 ar
    28   15   20 1
    29   16   17 ar
    30   16   32 1
    31   17   18 1
    32   18   19 2
    33   18   37 1
    34   21   22 1
    35   21   33 1
    36   21   34 1
    37   22   23 1
    38   22   35 1
    39   22   36 1
@<TRIPOS>MOLECULE
ZINC09330634
   40    43     0     0     0
SMALL
USER_CHARGES

@<TRIPOS>ATOM
      1 C1          3.2061   -1.4127   -4.3179 C.3       1 <0>        -0.0895
      2 C2          2.1383   -0.6930   -5.1008 C.ar      1 <0>         0.1721
      3 C3          1.5903   -1.2715   -6.2302 C.ar      1 <0>        -0.3361
      4 C4          0.6047   -0.5714   -6.9255 C.ar      1 <0>         0.4442
      5 N1          0.2270    0.6212   -6.4825 N.ar      1 <0>        -0.5989
      6 C5          0.7764    1.1429   -5.3949 C.ar      1 <0>         0.3215
      7 N2          1.7109    0.4984   -4.7111 N.ar      1 <0>        -0.5875
      8 S1          0.2462    2.7292   -4.8406 S.3       1 <0>         0.1092
      9 C6         -0.8726    3.2658   -6.0916 C.2       1 <0>        -0.1812
     10 C7         -2.2151    3.4354   -5.7969 C.2       1 <0>         0.0899
     11 C8         -3.1120    3.8850   -6.8734 C.ar      1 <0>        -0.1115
     12 C9         -4.4760    4.0757   -6.6415 C.ar      1 <0>        -0.0340
     13 C10        -5.2854    4.4943   -7.6600 C.ar      1 <0>        -0.1484
     14 C11        -4.7621    4.7312   -8.9246 C.ar      1 <0>         0.0193
     15 C12        -3.4175    4.5484   -9.1743 C.ar      1 <0>        -0.1596
     16 C13        -2.5765    4.1237   -8.1511 C.ar      1 <0>         0.2159
     17 N3         -1.2278    3.9357   -8.3784 N.am      1 <0>        -0.6276
     18 H1         -0.8682    4.1032   -9.2636 H         1 <0>         0.4161
     19 C14        -0.4014    3.5306   -7.3997 C.2       1 <0>         0.5600
     20 O1          0.7832    3.3826   -7.6457 O.2       1 <0>        -0.5001
     21 Cl1        -5.8097    5.2618  -10.2031 Cl        1 <0>        -0.0620
     22 C15        -2.7334    3.1713   -4.4371 C.ar      1 <0>        -0.0546
     23 C16        -3.6143    2.1112   -4.2163 C.ar      1 <0>        -0.0889
     24 C17        -4.0941    1.8704   -2.9456 C.ar      1 <0>        -0.1195
     25 C18        -3.7040    2.6769   -1.8911 C.ar      1 <0>        -0.1097
     26 C19        -2.8311    3.7294   -2.1031 C.ar      1 <0>        -0.1184
     27 C20        -2.3394    3.9776   -3.3679 C.ar      1 <0>        -0.0820
     28 O2          0.0409   -1.1012   -8.0381 O.3       1 <0>        -0.7053
     29 H2          4.1873   -1.1420   -4.7079 H         1 <0>         0.0678
     30 H3          3.1412   -1.1276   -3.2678 H         1 <0>         0.0677
     31 H4          3.0621   -2.4891   -4.4117 H         1 <0>         0.0651
     32 H5          1.9183   -2.2439   -6.5670 H         1 <0>         0.1120
     33 H6         -4.8897    3.8927   -5.6608 H         1 <0>         0.1451
     34 H7         -6.3401    4.6416   -7.4803 H         1 <0>         0.1401
     35 H8         -3.0194    4.7344  -10.1609 H         1 <0>         0.1450
     36 H9         -3.9198    1.4812   -5.0386 H         1 <0>         0.1258
     37 H10        -4.7760    1.0508   -2.7735 H         1 <0>         0.1248
     38 H11        -4.0829    2.4843   -0.8982 H         1 <0>         0.1221
     39 H12        -2.5308    4.3553   -1.2758 H         1 <0>         0.1259
     40 H13        -1.6544    4.7964   -3.5312 H         1 <0>         0.1250
@<TRIPOS>BOND
     1    1   29 1
     2    1   30 1
     3    1   31 1
     4    1    2 1
     5    2    3 ar
     6    2    7 ar
     7    3    4 ar
     8    3   32 1
     9    4    5 ar
    10    4   28 1
    11    5    6 ar
    12    6    7 ar
    13    6    8 1
    14    8    9 1
    15    9   19 1
    16    9   10 2
    17   10   11 1
    18   10   22 1
    19   11   16 ar
    20   11   12 ar
    21   12   13 ar
    22   12   33 1
    23   13   14 ar
    24   13   34 1
    25   14   15 ar
    26   14   21 1
    27   15   16 ar
    28   15   35 1
    29   16   17 1
    30   17   18 1
    31   17   19 am
    32   19   20 2
    33   22   27 ar
    34   22   23 ar
    35   23   24 ar
    36   23   36 1
    37   24   25 ar
    38   24   37 1
    39   25   26 ar
    40   25   38 1
    41   26   27 ar
    42   26   39 1
    43   27   40 1
@<TRIPOS>MOLECULE
ZINC45872021
   43    45     0     0     0
SMALL
USER_CHARGES

@<TRIPOS>ATOM
      1 C1         -0.0187    1.5258    0.0104 C.3       1 <0>        -0.1531
      2 C2          0.0021   -0.0041    0.0020 C.3       1 <0>        -0.1192
      3 C3          0.7421   -0.5109    1.2415 C.3       1 <0>        -0.0798
      4 C4          0.7625   -2.0177    1.2333 C.ar      1 <0>        -0.0848
      5 C5         -0.2640   -2.7241    1.8341 C.ar      1 <0>        -0.1206
      6 C6         -0.2506   -4.1040    1.8295 C.ar      1 <0>        -0.0856
      7 C7          0.7998   -4.7861    1.2176 C.ar      1 <0>        -0.0113
      8 C8          1.8312   -4.0691    0.6134 C.ar      1 <0>        -0.1052
      9 C9          1.8048   -2.6893    0.6199 C.ar      1 <0>        -0.1197
     10 C10         0.8202   -6.2690    1.2099 C.2       1 <0>         0.1080
     11 C11         1.3274   -6.9465    0.1363 C.2       1 <0>        -0.2327
     12 S1          1.0978   -8.6368    0.6724 S.3       1 <0>         0.1223
     13 C12         0.3566   -8.2695    2.2569 C.2       1 <0>         0.3400
     14 N1          0.3520   -6.9495    2.2456 N.2       1 <0>        -0.5497
     15 N2         -0.0912   -9.1412    3.2405 N.am      1 <0>        -0.6184
     16 C13         0.0095  -10.4727    3.0577 C.2       1 <0>         0.5447
     17 O1          0.4925  -10.9107    2.0310 O.2       1 <0>        -0.4198
     18 C14        -0.4656  -11.3977    4.1014 C.ar      1 <0>        -0.2322
     19 C15        -1.0291  -10.9076    5.2856 C.ar      1 <0>        -0.0234
     20 C16        -1.4602  -11.8175    6.2341 C.ar      1 <0>        -0.2521
     21 C17        -1.3247  -13.1731    5.9900 C.ar      1 <0>         0.1457
     22 N3         -0.7911  -13.6158    4.8689 N.ar      1 <0>        -0.5058
     23 C18        -0.3669  -12.7892    3.9242 C.ar      1 <0>         0.3431
     24 S2          0.3315  -13.4366    2.4417 S.3       1 <0>        -0.7798
     25 C19         1.9167   -6.4155   -1.1451 C.3       1 <0>        -0.0559
     26 H1          1.0039    1.9031    0.0027 H         1 <0>         0.0535
     27 H2         -0.5459    1.8868   -0.8726 H         1 <0>         0.0537
     28 H3         -0.5289    1.8773    0.9072 H         1 <0>         0.0535
     29 H4         -1.0205   -0.3814    0.0098 H         1 <0>         0.0629
     30 H5          0.5123   -0.3556   -0.8948 H         1 <0>         0.0630
     31 H6          1.7647   -0.1336    1.2338 H         1 <0>         0.0701
     32 H7          0.2319   -0.1594    2.1383 H         1 <0>         0.0700
     33 H8         -1.0774   -2.1945    2.3079 H         1 <0>         0.1200
     34 H9         -1.0522   -4.6544    2.2995 H         1 <0>         0.1255
     35 H10         2.6475   -4.5924    0.1379 H         1 <0>         0.1274
     36 H11         2.6015   -2.1328    0.1488 H         1 <0>         0.1212
     37 H12        -0.4764   -8.7919    4.0594 H         1 <0>         0.4139
     38 H13        -1.1244   -9.8452    5.4546 H         1 <0>         0.1194
     39 H14        -1.8992  -11.4726    7.1586 H         1 <0>         0.1240
     40 H15        -1.6621  -13.8815    6.7322 H         1 <0>         0.1438
     41 H16         2.9906   -6.2763   -1.0208 H         1 <0>         0.0738
     42 H17         1.7333   -7.1259   -1.9511 H         1 <0>         0.0708
     43 H18         1.4524   -5.4602   -1.3901 H         1 <0>         0.0788
@<TRIPOS>BOND
     1    1    2 1
     2    1   26 1
     3    1   27 1
     4    1   28 1
     5    2    3 1
     6    2   29 1
     7    2   30 1
     8    3    4 1
     9    3   31 1
    10    3   32 1
    11    4    9 ar
    12    4    5 ar
    13    5    6 ar
    14    5   33 1
    15    6    7 ar
    16    6   34 1
    17    7    8 ar
    18    7   10 1
    19    8    9 ar
    20    8   35 1
    21    9   36 1
    22   10   14 1
    23   10   11 2
    24   11   12 1
    25   11   25 1
    26   12   13 1
    27   13   14 2
    28   13   15 1
    29   15   16 am
    30   15   37 1
    31   16   17 2
    32   16   18 1
    33   18   23 ar
    34   18   19 ar
    35   19   20 ar
    36   19   38 1
    37   20   21 ar
    38   20   39 1
    39   21   22 ar
    40   21   40 1
    41   22   23 ar
    42   23   24 1
    43   25   41 1
    44   25   42 1
    45   25   43 1
@<TRIPOS>MOLECULE
ZINC58519697
   34    36     0     0     0
SMALL
USER_CHARGES

@<TRIPOS>ATOM
      1 C1         -0.0167    1.3780    0.0096 C.ar      1 <0>        -0.1135
      2 C2          1.1709    2.0861    0.0021 C.ar      1 <0>        -0.1120
      3 C3          2.3773    1.4123   -0.0135 C.ar      1 <0>        -0.1104
      4 C4          2.3967    0.0287   -0.0210 C.ar      1 <0>        -0.0299
      5 C5          1.2083   -0.6792   -0.0130 C.ar      1 <0>        -0.0690
      6 C6          0.0021   -0.0041    0.0020 C.ar      1 <0>        -0.0989
      7 C7          1.2286   -2.1860   -0.0218 C.3       1 <0>         0.0183
      8 C8          1.3734   -2.6946    1.3894 C.2       1 <0>        -0.2383
      9 C9          0.4174   -3.0062    2.2986 C.2       1 <0>         0.0857
     10 N1          0.8277   -3.4363    3.4774 N.2       1 <0>        -0.5272
     11 C10         2.1095   -3.5544    3.7495 C.2       1 <0>         0.3043
     12 S1          2.8514   -3.0603    2.3219 S.3       1 <0>         0.0857
     13 N2          2.7056   -3.9870    4.9271 N.am      1 <0>        -0.6306
     14 C11         1.9407   -4.3521    5.9750 C.2       1 <0>         0.5337
     15 O1          0.7285   -4.3027    5.8895 O.2       1 <0>        -0.3873
     16 C12         2.5730   -4.8110    7.2242 C.ar      1 <0>        -0.2285
     17 C13         3.9671   -4.8673    7.3387 C.ar      1 <0>        -0.0285
     18 C14         4.5114   -5.3049    8.5328 C.ar      1 <0>        -0.2535
     19 C15         3.6727   -5.6712    9.5711 C.ar      1 <0>         0.1408
     20 N3          2.3619   -5.6114    9.4445 N.ar      1 <0>        -0.5065
     21 C16         1.7874   -5.1950    8.3255 C.ar      1 <0>         0.3408
     22 S2          0.0301   -5.1287    8.2144 S.3       1 <0>        -0.7846
     23 Cl1         3.9119   -0.8184   -0.0411 Cl        1 <0>        -0.0637
     24 H1         -0.9592    1.9049    0.0259 H         1 <0>         0.1288
     25 H2          1.1556    3.1659    0.0080 H         1 <0>         0.1300
     26 H3          3.3048    1.9655   -0.0201 H         1 <0>         0.1321
     27 H4         -0.9258   -0.5566    0.0079 H         1 <0>         0.1336
     28 H5          0.2978   -2.5594   -0.4488 H         1 <0>         0.0995
     29 H6          2.0692   -2.5346   -0.6217 H         1 <0>         0.0907
     30 H7         -0.6332   -2.9068    2.0689 H         1 <0>         0.1671
     31 H8          3.6724   -4.0264    4.9954 H         1 <0>         0.4111
     32 H9          4.6021   -4.5767    6.5149 H         1 <0>         0.1162
     33 H10         5.5831   -5.3605    8.6539 H         1 <0>         0.1221
     34 H11         4.1001   -6.0128   10.5022 H         1 <0>         0.1421
@<TRIPOS>BOND
     1    1    6 ar
     2    1    2 ar
     3    1   24 1
     4    2    3 ar
     5    2   25 1
     6    3    4 ar
     7    3   26 1
     8    4    5 ar
     9    4   23 1
    10    5    6 ar
    11    5    7 1
    12    6   27 1
    13    7    8 1
    14    7   28 1
    15    7   29 1
    16    8   12 1
    17    8    9 2
    18    9   10 1
    19    9   30 1
    20   10   11 2
    21   11   12 1
    22   11   13 1
    23   13   14 am
    24   13   31 1
    25   14   15 2
    26   14   16 1
    27   16   21 ar
    28   16   17 ar
    29   17   18 ar
    30   17   32 1
    31   18   19 ar
    32   18   33 1
    33   19   20 ar
    34   19   34 1
    35   20   21 ar
    36   21   22 1
@<TRIPOS>MOLECULE
ZINC64797808
   40    43     0     0     0
SMALL
USER_CHARGES

@<TRIPOS>ATOM
      1 C1         -0.0167    1.3787    0.0096 C.ar      1 <0>        -0.0927
      2 C2          1.1669    2.0883    0.0021 C.ar      1 <0>        -0.0667
      3 C3          2.3852    1.4090   -0.0131 C.ar      1 <0>         0.0307
      4 C4          2.3999    0.0141   -0.0207 C.ar      1 <0>        -0.1463
      5 C5          1.2086   -0.6860   -0.0131 C.ar      1 <0>         0.0877
      6 C6          0.0021   -0.0041    0.0020 C.ar      1 <0>        -0.1567
      7 F1          1.2199   -2.0369   -0.0208 F         1 <0>        -0.1473
      8 C7          3.6578    2.1655   -0.0217 C.2       1 <0>        -0.1063
      9 C8          4.5347    2.1230   -1.1040 C.2       1 <0>         0.1268
     10 C9          5.6770    2.8724   -1.0032 C.2       1 <0>        -0.3201
     11 S1          5.6161    3.6089    0.4889 S.3       1 <0>         0.2586
     12 C10         4.0493    2.9712    1.0550 C.2       1 <0>        -0.1351
     13 C11         3.3779    3.2144    2.2747 C.2       1 <0>         0.5432
     14 O1          2.2963    2.6819    2.4957 O.co2     1 <0>        -0.6501
     15 O2          3.8773    3.9577    3.1115 O.co2     1 <0>        -0.6754
     16 C12         6.7314    2.9751   -2.0645 C.3       1 <0>         0.0480
     17 H1          7.7076    3.1158   -1.6004 H         1 <0>         0.1102
     18 C13         6.7268    1.6729   -2.8744 C.3       1 <0>        -0.1256
     19 C14         5.3192    1.2419   -3.1748 C.2       1 <0>         0.5233
     20 O3          5.0806    0.7551   -4.2599 O.2       1 <0>        -0.5401
     21 N1          4.3131    1.3723   -2.2936 N.am      1 <0>        -0.6493
     22 C15         6.4277    4.1396   -2.9716 C.ar      1 <0>        -0.0461
     23 C16         5.2366    4.1722   -3.6750 C.ar      1 <0>        -0.1062
     24 C17         4.9522    5.2351   -4.5070 C.ar      1 <0>        -0.0644
     25 C18         5.8693    6.2798   -4.6381 C.ar      1 <0>        -0.0339
     26 C19         7.0691    6.2407   -3.9249 C.ar      1 <0>        -0.0676
     27 C20         7.3386    5.1740   -3.0927 C.ar      1 <0>        -0.1093
     28 C21         5.5809    7.3862   -5.5003 C.1       1 <0>         0.2583
     29 N2          5.3521    8.2638   -6.1844 N.1       1 <0>        -0.4225
     30 H2         -0.9599    1.9045    0.0260 H         1 <0>         0.1291
     31 H3          1.1500    3.1682    0.0077 H         1 <0>         0.1249
     32 H4          3.3400   -0.5173   -0.0328 H         1 <0>         0.1266
     33 H5         -0.9270   -0.5547    0.0083 H         1 <0>         0.1283
     34 H6          7.2620    1.8302   -3.8108 H         1 <0>         0.1112
     35 H7          7.2273    0.8919   -2.3019 H         1 <0>         0.1097
     36 H8          3.4510    0.9620   -2.4648 H         1 <0>         0.4110
     37 H9          4.5282    3.3635   -3.5727 H         1 <0>         0.1296
     38 H10         4.0224    5.2590   -5.0560 H         1 <0>         0.1319
     39 H11         7.7828    7.0455   -4.0217 H         1 <0>         0.1344
     40 H12         8.2644    5.1444   -2.5374 H         1 <0>         0.1381
@<TRIPOS>BOND
     1    1    6 ar
     2    1    2 ar
     3    1   30 1
     4    2    3 ar
     5    2   31 1
     6    3    4 ar
     7    3    8 1
     8    4    5 ar
     9    4   32 1
    10    5    6 ar
    11    5    7 1
    12    6   33 1
    13    8   12 2
    14    8    9 1
    15    9   21 1
    16    9   10 2
    17   10   11 1
    18   10   16 1
    19   11   12 1
    20   12   13 1
    21   13   14 2
    22   13   15 1
    23   16   17 1
    24   16   18 1
    25   16   22 1
    26   18   19 1
    27   18   34 1
    28   18   35 1
    29   19   20 2
    30   19   21 am
    31   21   36 1
    32   22   27 ar
    33   22   23 ar
    34   23   24 ar
    35   23   37 1
    36   24   25 ar
    37   24   38 1
    38   25   26 ar
    39   25   28 1
    40   26   27 ar
    41   26   39 1
    42   27   40 1
    43   28   29 3
@<TRIPOS>MOLECULE
ZINC13353071
   39    41     0     0     0
SMALL
USER_CHARGES
2-[[2-[[5-[(2-fluorophenyl)amino]-1,3,4-thiadiazol-2-yl]sulfanyl]acetyl]amino]benzoic acid
@<TRIPOS>ATOM
      1 C1        -10.3202    9.7644   -1.1467 C.ar      1 <0>        -0.1569
      2 C2         -9.0419    9.9984   -1.6279 C.ar      1 <0>        -0.1029
      3 C3         -8.0384    9.0728   -1.4246 C.ar      1 <0>        -0.1502
      4 C4         -8.3074    7.8932   -0.7435 C.ar      1 <0>         0.1736
      5 C5         -9.6006    7.6531   -0.2544 C.ar      1 <0>        -0.1468
      6 C6        -10.6047    8.6023   -0.4636 C.ar      1 <0>        -0.0580
      7 C7         -9.8978    6.4079    0.4759 C.2       1 <0>         0.4966
      8 O1         -9.0025    5.6300    0.7401 O.co2     1 <0>        -0.6357
      9 N1         -7.2978    6.9556   -0.5419 N.am      1 <0>        -0.6319
     10 C8         -6.0082    7.3470   -0.5251 C.2       1 <0>         0.5299
     11 O2         -5.7317    8.5264   -0.5829 O.2       1 <0>        -0.5241
     12 C9         -4.9099    6.3192   -0.4344 C.3       1 <0>        -0.1554
     13 S1         -3.2993    7.1538   -0.4327 S.3       1 <0>         0.1363
     14 C10        -2.1359    5.8351   -0.3238 C.2       1 <0>         0.0404
     15 N2         -2.3497    4.5347   -0.2578 N.2       1 <0>        -0.2822
     16 N3         -1.2831    3.6689   -0.1833 N.2       1 <0>        -0.3513
     17 C11        -0.0527    4.1431   -0.1669 C.2       1 <0>         0.3253
     18 S2         -0.3515    5.9009   -0.2738 S.3       1 <0>         0.0255
     19 N4          1.1546    3.4577   -0.0924 N.pl3     1 <0>        -0.6003
     20 C12         1.1677    2.0594   -0.1205 C.ar      1 <0>         0.1360
     21 C13        -0.0270    1.3518   -0.1123 C.ar      1 <0>        -0.1377
     22 C14        -0.0107   -0.0292   -0.1405 C.ar      1 <0>        -0.0925
     23 C15         1.1933   -0.7083   -0.1769 C.ar      1 <0>        -0.1182
     24 C16         2.3860   -0.0084   -0.1852 C.ar      1 <0>        -0.1241
     25 C17         2.3777    1.3741   -0.1566 C.ar      1 <0>         0.0558
     26 F1          3.5428    2.0580   -0.1639 F         1 <0>        -0.1403
     27 H1        -11.0972   10.4970   -1.3076 H         1 <0>         0.1173
     28 H2         -8.8284   10.9127   -2.1616 H         1 <0>         0.1181
     29 H3         -7.0437    9.2645   -1.7992 H         1 <0>         0.1410
     30 H4        -11.6025    8.4252   -0.0900 H         1 <0>         0.1336
     31 H5         -7.5225    6.0207   -0.4136 H         1 <0>         0.4298
     32 H6         -4.9698    5.6469   -1.2903 H         1 <0>         0.1312
     33 H7         -5.0232    5.7465    0.4861 H         1 <0>         0.1341
     34 H8          1.9877    3.9492   -0.0210 H         1 <0>         0.4329
     35 H9         -0.9683    1.8808   -0.0884 H         1 <0>         0.1828
     36 H10        -0.9400   -0.5795   -0.1345 H         1 <0>         0.1364
     37 H11         1.2023   -1.7881   -0.1993 H         1 <0>         0.1346
     38 H12         3.3246   -0.5419   -0.2137 H         1 <0>         0.1402
     39 O3        -11.1625    6.1321    0.8507 O.co2     1 <0>        -0.7428
@<TRIPOS>BOND
     1    1    6 ar
     2    1    2 ar
     3    1   27 1
     4    2    3 ar
     5    2   28 1
     6    3    4 ar
     7    3   29 1
     8    4    5 ar
     9    4    9 1
    10    5    6 ar
    11    5    7 1
    12    6   30 1
    13    7    8 2
    14    7   39 1
    15    9   10 am
    16    9   31 1
    17   10   11 2
    18   10   12 1
    19   12   13 1
    20   12   32 1
    21   12   33 1
    22   13   14 1
    23   14   18 1
    24   14   15 2
    25   15   16 1
    26   16   17 2
    27   17   18 1
    28   17   19 1
    29   19   20 1
    30   19   34 1
    31   20   25 ar
    32   20   21 ar
    33   21   22 ar
    34   21   35 1
    35   22   23 ar
    36   22   36 1
    37   23   24 ar
    38   23   37 1
    39   24   25 ar
    40   24   38 1
    41   25   26 1
@<TRIPOS>MOLECULE
ZINC28561541
   50    52     0     0     0
SMALL
USER_CHARGES
N'-(6-tert-butyl-5-hydroxy-1,2,4-triazin-3-yl)-2,2-diphenyl-acetohydrazide
@<TRIPOS>ATOM
      1 C1         -8.3059    4.0802    3.4903 C.3       1 <0>        -0.1385
      2 C2         -7.6484    2.7301    3.7832 C.3       1 <0>         0.0247
      3 C3         -8.3363    1.6387    2.9607 C.3       1 <0>        -0.1256
      4 C4         -7.7854    2.4087    5.2728 C.3       1 <0>        -0.1386
      5 C5         -6.1885    2.7918    3.4148 C.ar      1 <0>        -0.0897
      6 C6         -5.3425    3.7142    4.0327 C.ar      1 <0>         0.4509
      7 N1         -4.0615    3.7392    3.6815 N.ar      1 <0>        -0.6337
      8 C7         -3.6232    2.8921    2.7586 C.ar      1 <0>         0.5335
      9 N2         -4.4496    2.0287    2.1827 N.ar      1 <0>        -0.4505
     10 N3         -5.6947    1.9749    2.5040 N.ar      1 <0>        -0.1705
     11 N4         -2.2896    2.9135    2.3887 N.pl3     1 <0>        -0.5163
     12 N5         -1.8182    2.0229    1.4153 N.am      1 <0>        -0.5002
     13 C8         -0.5197    2.0438    1.0550 C.2       1 <0>         0.5129
     14 O1          0.2408    2.8335    1.5735 O.2       1 <0>        -0.5469
     15 C9         -0.0127    1.0858    0.0080 C.3       1 <0>        -0.0151
     16 C10         1.4610    1.3133   -0.2096 C.ar      1 <0>        -0.0607
     17 C11         2.3476    0.2589   -0.0947 C.ar      1 <0>        -0.1087
     18 C12         3.6989    0.4667   -0.2990 C.ar      1 <0>        -0.1261
     19 C13         4.1648    1.7308   -0.6084 C.ar      1 <0>        -0.1191
     20 C14         3.2789    2.7864   -0.7177 C.ar      1 <0>        -0.1244
     21 C15         1.9270    2.5776   -0.5185 C.ar      1 <0>        -0.0763
     22 C16        -0.7528    1.3164   -1.2843 C.ar      1 <0>        -0.0793
     23 C17        -0.8456    2.5917   -1.8096 C.ar      1 <0>        -0.1034
     24 C18        -1.5204    2.8025   -2.9975 C.ar      1 <0>        -0.1155
     25 C19        -2.1108    1.7395   -3.6550 C.ar      1 <0>        -0.1161
     26 C20        -2.0228    0.4651   -3.1269 C.ar      1 <0>        -0.1166
     27 C21        -1.3436    0.2535   -1.9416 C.ar      1 <0>        -0.1063
     28 O2         -5.8184    4.5675    4.9718 O.3       1 <0>        -0.6658
     29 H1         -7.8113    4.8649    4.0817 H         1 <0>         0.0802
     30 H2         -9.3715    4.0351    3.7593 H         1 <0>         0.0444
     31 H3         -8.2075    4.3113    2.4194 H         1 <0>         0.0393
     32 H4         -7.8636    0.6680    3.1713 H         1 <0>         0.0525
     33 H5         -8.2379    1.8698    1.8898 H         1 <0>         0.0525
     34 H6         -9.4019    1.5936    3.2297 H         1 <0>         0.0423
     35 H7         -7.3127    1.4380    5.4834 H         1 <0>         0.0393
     36 H8         -8.8511    2.3636    5.5417 H         1 <0>         0.0443
     37 H9         -7.2909    3.1934    5.8642 H         1 <0>         0.0803
     38 H10        -1.5999    3.6298    2.8590 H         1 <0>         0.4607
     39 H11        -2.5079    1.3065    0.9451 H         1 <0>         0.4561
     40 H12        -0.1781    0.0521    0.3459 H         1 <0>         0.1146
     41 H13         1.9840   -0.7279    0.1511 H         1 <0>         0.1213
     42 H14         4.3910   -0.3579   -0.2132 H         1 <0>         0.1203
     43 H15         5.2209    1.8939   -0.7644 H         1 <0>         0.1184
     44 H16         3.6430    3.7741   -0.9591 H         1 <0>         0.1199
     45 H17         1.2349    3.4023   -0.6039 H         1 <0>         0.1221
     46 H18        -0.3879    3.4228   -1.2937 H         1 <0>         0.1215
     47 H19        -1.5894    3.7983   -3.4100 H         1 <0>         0.1216
     48 H20        -2.6412    1.9048   -4.5812 H         1 <0>         0.1210
     49 H21        -2.4844   -0.3653   -3.6404 H         1 <0>         0.1236
     50 H22        -1.2748   -0.7422   -1.5290 H         1 <0>         0.1258
@<TRIPOS>BOND
     1    1    2 1
     2    1   29 1
     3    1   30 1
     4    1   31 1
     5    2    3 1
     6    2    4 1
     7    2    5 1
     8    3   32 1
     9    3   33 1
    10    3   34 1
    11    4   35 1
    12    4   36 1
    13    4   37 1
    14    5   10 ar
    15    5    6 ar
    16    6    7 ar
    17    6   28 1
    18    7    8 ar
    19    8    9 ar
    20    8   11 1
    21    9   10 ar
    22   11   12 1
    23   11   38 1
    24   12   13 am
    25   12   39 1
    26   13   14 2
    27   13   15 1
    28   15   16 1
    29   15   22 1
    30   15   40 1
    31   16   21 ar
    32   16   17 ar
    33   17   18 ar
    34   17   41 1
    35   18   19 ar
    36   18   42 1
    37   19   20 ar
    38   19   43 1
    39   20   21 ar
    40   20   44 1
    41   21   45 1
    42   22   27 ar
    43   22   23 ar
    44   23   24 ar
    45   23   46 1
    46   24   25 ar
    47   24   47 1
    48   25   26 ar
    49   25   48 1
    50   26   27 ar
    51   26   49 1
    52   27   50 1
@<TRIPOS>MOLECULE
ZINC39898577
   51    54     0     0     0
SMALL
USER_CHARGES

@<TRIPOS>ATOM
      1 C1         -0.0187    1.5258    0.0104 C.3       1 <0>        -0.1541
      2 C2          0.0021   -0.0041    0.0020 C.3       1 <0>        -0.1244
      3 C3          0.7421   -0.5109    1.2415 C.3       1 <0>        -0.1169
      4 C4          0.7628   -2.0407    1.2331 C.3       1 <0>        -0.1399
      5 C5          1.5028   -2.5476    2.4727 C.3       1 <0>         0.1382
      6 N1          1.5227   -4.0124    2.4646 N.am      1 <0>        -0.5935
      7 C6          0.5064   -4.8900    3.0597 C.3       1 <0>         0.2471
      8 H1         -0.4613   -4.7162    2.5891 H         1 <0>         0.1115
      9 C7          0.9653   -6.2978    2.7953 C.2       1 <0>        -0.1720
     10 C8          0.7171   -7.6666    2.9435 C.2       1 <0>         0.1141
     11 N2          1.7106   -8.3125    2.3653 N.2       1 <0>        -0.2215
     12 N3          2.5612   -7.4875    1.8671 N.pl3     1 <0>        -0.3316
     13 H2          3.3704   -7.7389    1.3950 H         1 <0>         0.4545
     14 C9          2.1559   -6.2041    2.1005 C.2       1 <0>        -0.0595
     15 C10         2.4719   -4.7846    1.9059 C.2       1 <0>         0.5987
     16 O1          3.4545   -4.3655    1.3244 O.2       1 <0>        -0.5143
     17 C11        -0.4497   -8.2791    3.6262 C.ar      1 <0>        -0.0289
     18 C12        -1.4326   -7.4707    4.1915 C.ar      1 <0>        -0.0853
     19 C13        -2.5169   -8.0454    4.8255 C.ar      1 <0>        -0.0420
     20 C14        -2.6296   -9.4235    4.9012 C.ar      1 <0>        -0.0866
     21 C15        -1.6592  -10.2337    4.3431 C.ar      1 <0>        -0.1330
     22 C16        -0.5695   -9.6695    3.6994 C.ar      1 <0>         0.1371
     23 O2          0.3822  -10.4657    3.1456 O.3       1 <0>        -0.4781
     24 Cl1        -3.7419   -7.0370    5.5300 Cl        1 <0>        -0.0529
     25 C17         0.4127   -4.6434    4.5434 C.ar      1 <0>        -0.0812
     26 C18         1.5616   -4.4239    5.2811 C.ar      1 <0>        -0.1049
     27 C19         1.4791   -4.1974    6.6424 C.ar      1 <0>        -0.0982
     28 C20         0.2479   -4.1904    7.2693 C.ar      1 <0>        -0.1376
     29 C21        -0.9060   -4.4104    6.5316 C.ar      1 <0>         0.1193
     30 C22        -0.8210   -4.6313    5.1644 C.ar      1 <0>        -0.1353
     31 O3         -2.1182   -4.4039    7.1459 O.3       1 <0>        -0.4903
     32 H3          1.0039    1.9031    0.0027 H         1 <0>         0.0543
     33 H4         -0.5459    1.8868   -0.8726 H         1 <0>         0.0543
     34 H5         -0.5289    1.8773    0.9072 H         1 <0>         0.0539
     35 H6         -1.0205   -0.3814    0.0098 H         1 <0>         0.0613
     36 H7          0.5123   -0.3556   -0.8948 H         1 <0>         0.0616
     37 H8          1.7647   -0.1336    1.2338 H         1 <0>         0.0658
     38 H9          0.2319   -0.1594    2.1383 H         1 <0>         0.0650
     39 H10        -0.2598   -2.4180    1.2409 H         1 <0>         0.0677
     40 H11         1.2730   -2.3923    0.3363 H         1 <0>         0.0697
     41 H12         2.5254   -2.1703    2.4649 H         1 <0>         0.0914
     42 H13         0.9926   -2.1961    3.3695 H         1 <0>         0.0893
     43 H14        -1.3471   -6.3956    4.1346 H         1 <0>         0.1454
     44 H15        -3.4794   -9.8669    5.3988 H         1 <0>         0.1410
     45 H16        -1.7522  -11.3079    4.4052 H         1 <0>         0.1434
     46 H17         1.1031  -10.6943    3.7482 H         1 <0>         0.3930
     47 H18         2.5250   -4.4297    4.7930 H         1 <0>         0.1201
     48 H19         2.3778   -4.0262    7.2163 H         1 <0>         0.1291
     49 H20         0.1840   -4.0142    8.3329 H         1 <0>         0.1310
     50 H21        -1.7183   -4.7981    4.5870 H         1 <0>         0.1334
     51 H22        -2.5396   -3.5340    7.1753 H         1 <0>         0.3907
@<TRIPOS>BOND
     1    1    2 1
     2    1   32 1
     3    1   33 1
     4    1   34 1
     5    2    3 1
     6    2   35 1
     7    2   36 1
     8    3    4 1
     9    3   37 1
    10    3   38 1
    11    4    5 1
    12    4   39 1
    13    4   40 1
    14    5    6 1
    15    5   41 1
    16    5   42 1
    17    6   15 am
    18    6    7 1
    19    7    8 1
    20    7    9 1
    21    7   25 1
    22    9   14 2
    23    9   10 1
    24   10   11 2
    25   10   17 1
    26   11   12 1
    27   12   13 1
    28   12   14 1
    29   14   15 1
    30   15   16 2
    31   17   22 ar
    32   17   18 ar
    33   18   19 ar
    34   18   43 1
    35   19   20 ar
    36   19   24 1
    37   20   21 ar
    38   20   44 1
    39   21   22 ar
    40   21   45 1
    41   22   23 1
    42   23   46 1
    43   25   30 ar
    44   25   26 ar
    45   26   27 ar
    46   26   47 1
    47   27   28 ar
    48   27   48 1
    49   28   29 ar
    50   28   49 1
    51   29   30 ar
    52   29   31 1
    53   30   50 1
    54   31   51 1
@<TRIPOS>MOLECULE
ZINC51005041
   53    56     0     0     0
SMALL
USER_CHARGES

@<TRIPOS>ATOM
      1 C1         -0.1838    1.3566    0.1802 C.3       1 <0>        -0.1459
      2 C2         -0.1351   -0.1726    0.1945 C.3       1 <0>        -0.0823
      3 C3          0.6430   -0.6393    1.3977 C.ar      1 <0>        -0.0804
      4 C4          2.0104   -0.8217    1.3083 C.ar      1 <0>        -0.1221
      5 C5          2.7242   -1.2498    2.4120 C.ar      1 <0>        -0.0848
      6 C6          2.0707   -1.4949    3.6052 C.ar      1 <0>        -0.1168
      7 C7          0.7035   -1.3116    3.6949 C.ar      1 <0>        -0.0810
      8 C8         -0.0097   -0.8794    2.5924 C.ar      1 <0>        -0.1209
      9 C9          2.8488   -1.9625    4.8081 C.3       1 <0>         0.4171
     10 H1          2.8907   -3.0516    4.8220 H         1 <0>         0.1327
     11 N1          4.2144   -1.4084    4.7688 N.pl3     1 <0>        -0.7972
     12 C10         4.3659   -0.0741    5.1110 C.2       1 <0>         0.6397
     13 N2          3.4983    0.4848    5.9724 N.2       1 <0>        -0.6134
     14 C11         2.4792   -0.1928    6.4589 C.2       1 <0>         0.6882
     15 N3          2.2110   -1.4703    6.0391 N.pl3     1 <0>        -0.5655
     16 C12         1.3677   -2.2975    6.7534 C.2       1 <0>         0.4492
     17 O1          1.2000   -3.5839    6.3650 O.3       1 <0>        -0.6987
     18 C13         0.7091   -1.8331    7.8371 C.2       1 <0>        -0.4507
     19 C14         0.9365   -0.4388    8.2566 C.2       1 <0>         0.2210
     20 N4          1.6465    0.4006    7.3761 N.pl3     1 <0>        -0.6377
     21 C15         0.4850    0.0150    9.4357 C.2       1 <0>        -0.3602
     22 N5          5.3506    0.6393    4.5978 N.2       1 <0>        -0.5782
     23 C16         6.3033    0.0340    3.8262 C.ar      1 <0>         0.1717
     24 C17         6.9797   -1.0927    4.3012 C.ar      1 <0>        -0.2014
     25 C18         7.9390   -1.6983    3.5173 C.ar      1 <0>        -0.0930
     26 C19         8.2329   -1.1925    2.2630 C.ar      1 <0>        -0.1624
     27 C20         7.5676   -0.0770    1.7863 C.ar      1 <0>        -0.0656
     28 C21         6.6011    0.5355    2.5568 C.ar      1 <0>        -0.1097
     29 C22         5.8732    1.7468    2.0333 C.3       1 <0>        -0.0956
     30 C23         7.8951    0.4665    0.4193 C.3       1 <0>        -0.1120
     31 H2          0.8308    1.7519    0.1324 H         1 <0>         0.0555
     32 H3         -0.7467    1.6941   -0.6900 H         1 <0>         0.0551
     33 H4         -0.6703    1.7131    1.0882 H         1 <0>         0.0556
     34 H5         -1.1498   -0.5680    0.2423 H         1 <0>         0.0697
     35 H6          0.3513   -0.5291   -0.7135 H         1 <0>         0.0690
     36 H7          2.5209   -0.6302    0.3760 H         1 <0>         0.1185
     37 H8          3.7924   -1.3930    2.3419 H         1 <0>         0.1193
     38 H9          0.1930   -1.5035    4.6270 H         1 <0>         0.1267
     39 H10        -1.0773   -0.7326    2.6634 H         1 <0>         0.1201
     40 H11         0.0300   -2.4699    8.3846 H         1 <0>         0.1292
     41 H12        -0.0562   -0.6454   10.0971 H         1 <0>         0.1054
     42 H13         0.6627    1.0407    9.7234 H         1 <0>         0.0820
     43 H14         6.7519   -1.4881    5.2801 H         1 <0>         0.1122
     44 H15         8.4626   -2.5692    3.8831 H         1 <0>         0.1138
     45 H16         8.9854   -1.6706    1.6535 H         1 <0>         0.1127
     46 H17         6.4169    2.6480    2.3165 H         1 <0>         0.0613
     47 H18         5.8063    1.6891    0.9469 H         1 <0>         0.0540
     48 H19         4.8698    1.7793    2.4578 H         1 <0>         0.0678
     49 H20         7.2542   -0.0084   -0.3236 H         1 <0>         0.0661
     50 H21         7.7289    1.5437    0.4072 H         1 <0>         0.0662
     51 H22         8.9390    0.2573    0.1857 H         1 <0>         0.0616
     52 H23         4.9745   -1.9546    4.5144 H         1 <0>         0.4091
     53 H24         1.5500    1.3650    7.4145 H         1 <0>         0.4251
@<TRIPOS>BOND
     1    1    2 1
     2    1   31 1
     3    1   32 1
     4    1   33 1
     5    2    3 1
     6    2   34 1
     7    2   35 1
     8    3    8 ar
     9    3    4 ar
    10    4    5 ar
    11    4   36 1
    12    5    6 ar
    13    5   37 1
    14    6    7 ar
    15    6    9 1
    16    7    8 ar
    17    7   38 1
    18    8   39 1
    19    9   10 1
    20    9   15 1
    21    9   11 1
    22   11   12 1
    23   11   52 1
    24   12   13 1
    25   12   22 2
    26   13   14 2
    27   14   20 1
    28   14   15 1
    29   15   16 1
    30   16   17 1
    31   16   18 2
    32   18   19 1
    33   18   40 1
    34   19   20 1
    35   19   21 2
    36   20   53 1
    37   21   41 1
    38   21   42 1
    39   22   23 1
    40   23   28 ar
    41   23   24 ar
    42   24   25 ar
    43   24   43 1
    44   25   26 ar
    45   25   44 1
    46   26   27 ar
    47   26   45 1
    48   27   28 ar
    49   27   30 1
    50   28   29 1
    51   29   46 1
    52   29   47 1
    53   29   48 1
    54   30   49 1
    55   30   50 1
    56   30   51 1
@<TRIPOS>MOLECULE
ZINC65150465
   46    49     0     0     0
SMALL
USER_CHARGES

@<TRIPOS>ATOM
      1 C1         -1.8989    1.5949    2.4388 C.3       1 <0>        -0.1445
      2 C2         -1.6675    0.1497    1.9932 C.3       1 <0>        -0.0877
      3 H1         -1.4654    0.1257    0.9223 H         1 <0>         0.0743
      4 C3         -2.9131   -0.6870    2.2989 C.3       1 <0>        -0.1148
      5 C4         -2.7896   -2.0629    1.6409 C.3       1 <0>        -0.0547
      6 C5         -1.4574   -2.6793    2.0439 C.2       1 <0>        -0.0163
      7 C6         -0.4556   -1.9205    2.5362 C.2       1 <0>        -0.2333
      8 S1          0.8640   -3.0582    2.8544 S.3       1 <0>         0.1575
      9 C7          0.1378   -4.4723    2.3645 C.2       1 <0>         0.0576
     10 N1          0.6087   -5.7528    2.3439 N.am      1 <0>        -0.6015
     11 C8         -0.2191   -6.7222    1.8852 C.2       1 <0>         0.5649
     12 O1          0.1730   -7.8759    1.8549 O.2       1 <0>        -0.5950
     13 C9         -1.5267   -6.4252    1.4417 C.2       1 <0>        -0.4822
     14 C10        -2.0283   -5.1148    1.4553 C.2       1 <0>         0.3989
     15 C11        -1.1480   -4.0984    1.9407 C.2       1 <0>        -0.2243
     16 O2         -3.2787   -4.8286    1.0318 O.3       1 <0>        -0.5988
     17 C12        -2.3807   -7.5126    0.9547 C.2       1 <0>         0.5910
     18 O3         -3.5453   -7.2939    0.6769 O.2       1 <0>        -0.5296
     19 N2         -1.8762   -8.7546    0.8147 N.am      1 <0>        -0.6820
     20 C13        -2.6569   -9.7665    0.2469 C.ar      1 <0>         0.2187
     21 C14        -3.5739   -9.4605   -0.7512 C.ar      1 <0>        -0.1644
     22 C15        -4.3448  -10.4599   -1.3119 C.ar      1 <0>        -0.0637
     23 C16        -4.2065  -11.7663   -0.8823 C.ar      1 <0>        -0.2456
     24 C17        -3.2920  -12.0779    0.1138 C.ar      1 <0>         0.1402
     25 C18        -2.5126  -11.0785    0.6754 C.ar      1 <0>        -0.1967
     26 O4         -3.1571  -13.3629    0.5352 O.3       1 <0>        -0.3214
     27 C19        -3.9888  -14.3417   -0.0911 C.3       1 <0>         0.0309
     28 C20        -0.4714   -0.4386    2.7558 C.3       1 <0>        -0.0169
     29 H2         -1.0098    2.1880    2.2244 H         1 <0>         0.0533
     30 H3         -2.7508    2.0094    1.8997 H         1 <0>         0.0555
     31 H4         -2.1008    1.6170    3.5097 H         1 <0>         0.0545
     32 H5         -3.0116   -0.8090    3.3776 H         1 <0>         0.0621
     33 H6         -3.7955   -0.1780    1.9111 H         1 <0>         0.0651
     34 H7         -3.6052   -2.7033    1.9767 H         1 <0>         0.0944
     35 H8         -2.8293   -1.9546    0.5570 H         1 <0>         0.0761
     36 H9         -0.9717   -8.9465    1.1078 H         1 <0>         0.4196
     37 H10        -3.6842   -8.4404   -1.0884 H         1 <0>         0.1372
     38 H11        -5.0573  -10.2202   -2.0873 H         1 <0>         0.1209
     39 H12        -4.8112  -12.5456   -1.3222 H         1 <0>         0.1197
     40 H13        -1.7975  -11.3198    1.4479 H         1 <0>         0.1276
     41 H14        -3.7811  -15.3224    0.3368 H         1 <0>         0.0938
     42 H15        -5.0360  -14.0878    0.0737 H         1 <0>         0.0526
     43 H16        -3.7839  -14.3614   -1.1615 H         1 <0>         0.0523
     44 H17         0.4539   -0.0001    2.3822 H         1 <0>         0.0721
     45 H18        -0.5749   -0.2277    3.8201 H         1 <0>         0.0735
     46 H19         1.5058   -5.9621    2.6477 H         1 <0>         0.4091
@<TRIPOS>BOND
     1    1    2 1
     2    1   29 1
     3    1   30 1
     4    1   31 1
     5    2    3 1
     6    2   28 1
     7    2    4 1
     8    4    5 1
     9    4   32 1
    10    4   33 1
    11    5    6 1
    12    5   34 1
    13    5   35 1
    14    6   15 1
    15    6    7 2
    16    7    8 1
    17    7   28 1
    18    8    9 1
    19    9   15 2
    20    9   10 1
    21   10   11 am
    22   10   46 1
    23   11   12 2
    24   11   13 1
    25   13   14 2
    26   13   17 1
    27   14   15 1
    28   14   16 1
    29   17   18 2
    30   17   19 am
    31   19   20 1
    32   19   36 1
    33   20   25 ar
    34   20   21 ar
    35   21   22 ar
    36   21   37 1
    37   22   23 ar
    38   22   38 1
    39   23   24 ar
    40   23   39 1
    41   24   25 ar
    42   24   26 1
    43   25   40 1
    44   26   27 1
    45   27   41 1
    46   27   42 1
    47   27   43 1
    48   28   44 1
    49   28   45 1
@<TRIPOS>MOLECULE
ZINC05373154
   44    46     0     0     0
SMALL
USER_CHARGES
4-methyl-3-[5-(2-methyl-3-phenyl-prop-2-enylidene)-4-oxo-thiazol-2-yl]amino-benzoic acid
@<TRIPOS>ATOM
      1 C1         -2.2325    3.6536   -2.3640 C.3       1 <0>        -0.1078
      2 C2         -0.9505    2.9172   -2.0721 C.ar      1 <0>        -0.1180
      3 C3          0.2618    3.5713   -2.1898 C.ar      1 <0>        -0.1198
      4 C4          1.4398    2.9042   -1.9239 C.ar      1 <0>        -0.0824
      5 C5          1.4103    1.5631   -1.5346 C.ar      1 <0>        -0.0944
      6 C6          0.1872    0.9029   -1.4162 C.ar      1 <0>        -0.1078
      7 C7         -0.9906    1.5810   -1.6914 C.ar      1 <0>         0.1009
      8 N1         -2.2190    0.9223   -1.5803 N.pl3     1 <0>        -0.5660
      9 C8         -2.2539   -0.4288   -1.3485 C.2       1 <0>         0.4570
     10 N2         -1.2412   -1.2498   -1.1207 N.2       1 <0>        -0.6308
     11 C9         -1.4104   -2.5371   -0.9108 C.2       1 <0>         0.5360
     12 O1         -0.4678   -3.2847   -0.7020 O.2       1 <0>        -0.4433
     13 C10        -2.8053   -3.0303   -0.9421 C.2       1 <0>        -0.2142
     14 C11        -3.2900   -4.2928   -0.7630 C.2       1 <0>         0.0311
     15 C12        -4.6802   -4.5104   -0.6931 C.2       1 <0>        -0.1082
     16 C13        -5.1660   -5.7733   -0.6376 C.2       1 <0>        -0.0705
     17 C14        -6.6161   -6.0064   -0.7006 C.ar      1 <0>        -0.0650
     18 C15        -7.1839   -7.0927   -0.0253 C.ar      1 <0>        -0.1018
     19 C16        -8.5453   -7.3015   -0.0855 C.ar      1 <0>        -0.1235
     20 C17        -9.3486   -6.4467   -0.8204 C.ar      1 <0>        -0.1149
     21 C18        -8.7942   -5.3727   -1.4952 C.ar      1 <0>        -0.1241
     22 C19        -7.4353   -5.1467   -1.4409 C.ar      1 <0>        -0.1089
     23 C20        -5.6266   -3.3377   -0.6801 C.3       1 <0>        -0.1396
     24 S1         -3.6776   -1.5046   -1.2734 S.3       1 <0>        -0.0399
     25 C21         2.6703    0.8461   -1.2497 C.2       1 <0>         0.4862
     26 O2          2.6423   -0.3203   -0.9117 O.co2     1 <0>        -0.6141
     27 H1         -2.4823    3.5440   -3.4193 H         1 <0>         0.0691
     28 H2         -3.0363    3.2392   -1.7554 H         1 <0>         0.0526
     29 H3         -2.1063    4.7104   -2.1284 H         1 <0>         0.0722
     30 H4          0.2867    4.6083   -2.4907 H         1 <0>         0.1237
     31 H5          2.3847    3.4188   -2.0171 H         1 <0>         0.1340
     32 H6          0.1579   -0.1340   -1.1156 H         1 <0>         0.1933
     33 H7         -3.0464    1.4210   -1.6673 H         1 <0>         0.4282
     34 H8         -2.6080   -5.1256   -0.6748 H         1 <0>         0.1551
     35 H9         -4.4881   -6.6091   -0.5470 H         1 <0>         0.1324
     36 H10        -6.5579   -7.7634    0.5445 H         1 <0>         0.1259
     37 H11        -8.9857   -8.1370    0.4384 H         1 <0>         0.1233
     38 H12       -10.4138   -6.6184   -0.8673 H         1 <0>         0.1213
     39 H13        -9.4279   -4.7102   -2.0661 H         1 <0>         0.1240
     40 H14        -7.0043   -4.3083   -1.9679 H         1 <0>         0.1352
     41 H15        -5.8258   -3.0203   -1.7037 H         1 <0>         0.0808
     42 H16        -6.5614   -3.6306   -0.2021 H         1 <0>         0.0874
     43 H17        -5.1772   -2.5142   -0.1252 H         1 <0>         0.0827
     44 O3          3.8502    1.4858   -1.3647 O.co2     1 <0>        -0.7575
@<TRIPOS>BOND
     1    1    2 1
     2    1   27 1
     3    1   28 1
     4    1   29 1
     5    2    7 ar
     6    2    3 ar
     7    3    4 ar
     8    3   30 1
     9    4    5 ar
    10    4   31 1
    11    5    6 ar
    12    5   25 1
    13    6    7 ar
    14    6   32 1
    15    7    8 1
    16    8    9 1
    17    8   33 1
    18    9   24 1
    19    9   10 2
    20   10   11 1
    21   11   12 2
    22   11   13 1
    23   13   14 2
    24   13   24 1
    25   14   15 1
    26   14   34 1
    27   15   16 2
    28   15   23 1
    29   16   17 1
    30   16   35 1
    31   17   22 ar
    32   17   18 ar
    33   18   19 ar
    34   18   36 1
    35   19   20 ar
    36   19   37 1
    37   20   21 ar
    38   20   38 1
    39   21   22 ar
    40   21   39 1
    41   22   40 1
    42   23   41 1
    43   23   42 1
    44   23   43 1
    45   25   26 2
    46   25   44 1
@<TRIPOS>MOLECULE
ZINC17078122
   48    49     0     0     0
SMALL
USER_CHARGES
(E)-4-[[3-cyano-5-methyl-4-(4-sec-butylphenyl)-2-thienyl]amino]-2-methyl-4-oxo-but-2-enoic acid
@<TRIPOS>ATOM
      1 C1          7.0709    2.3611   -0.5495 C.3       1 <0>        -0.1547
      2 C2          5.6478    2.9206   -0.4981 C.3       1 <0>        -0.1151
      3 C3          4.7576    2.1403   -1.4674 C.3       1 <0>        -0.0530
      4 H1          4.8149    1.0764   -1.2371 H         1 <0>         0.0764
      5 C4          5.2344    2.3779   -2.9017 C.3       1 <0>        -0.1461
      6 C5          3.3320    2.6084   -1.3279 C.ar      1 <0>        -0.0745
      7 C6          2.3459    1.7123   -0.9560 C.ar      1 <0>        -0.1160
      8 C7          1.0388    2.1352   -0.8262 C.ar      1 <0>        -0.0975
      9 C8          0.7129    3.4686   -1.0708 C.ar      1 <0>        -0.0337
     10 C9          1.7110    4.3671   -1.4453 C.ar      1 <0>        -0.0968
     11 C10         3.0146    3.9326   -1.5719 C.ar      1 <0>        -0.1146
     12 C11        -0.6903    3.9278   -0.9390 C.2       1 <0>        -0.0336
     13 C12        -1.0453    4.8282    0.0143 C.2       1 <0>        -0.1884
     14 S1         -2.7952    5.0353   -0.2513 S.3       1 <0>         0.2102
     15 C13        -3.0105    3.9187   -1.6241 C.2       1 <0>         0.1457
     16 C14        -1.7228    3.4348   -1.8264 C.2       1 <0>        -0.1378
     17 C15        -1.4320    2.4890   -2.8615 C.1       1 <0>         0.2735
     18 N1         -1.2013    1.7387   -3.6827 N.1       1 <0>        -0.4274
     19 N2         -4.1691    3.6137   -2.3188 N.am      1 <0>        -0.6199
     20 C16        -5.3347    4.1958   -1.9737 C.2       1 <0>         0.5471
     21 O1         -5.3690    4.9886   -1.0527 O.2       1 <0>        -0.4970
     22 C17        -6.5690    3.8709   -2.7137 C.2       1 <0>        -0.2394
     23 C18        -7.7501    4.3570   -2.2965 C.2       1 <0>        -0.0132
     24 C19        -7.8395    5.0999   -0.9884 C.3       1 <0>        -0.1188
     25 C20        -8.9587    4.1636   -3.1185 C.2       1 <0>         0.4764
     26 O2         -8.8867    3.5649   -4.1728 O.co2     1 <0>        -0.6183
     27 C21        -0.1708    5.4909    1.0473 C.3       1 <0>        -0.0633
     28 H2          7.0582    1.3091   -0.2645 H         1 <0>         0.0533
     29 H3          7.4632    2.4585   -1.5618 H         1 <0>         0.0567
     30 H4          7.7051    2.9170    0.1410 H         1 <0>         0.0536
     31 H5          5.6605    3.9726   -0.7832 H         1 <0>         0.0638
     32 H6          5.2554    2.8232    0.5141 H         1 <0>         0.0631
     33 H7          6.2656    2.0394   -3.0026 H         1 <0>         0.0597
     34 H8          4.6003    1.8220   -3.5922 H         1 <0>         0.0553
     35 H9          5.1771    3.4418   -3.1320 H         1 <0>         0.0567
     36 H10         2.5994    0.6796   -0.7672 H         1 <0>         0.1206
     37 H11         0.2697    1.4347   -0.5362 H         1 <0>         0.1204
     38 H12         1.4644    5.4011   -1.6363 H         1 <0>         0.1242
     39 H13         3.7887    4.6277   -1.8616 H         1 <0>         0.1217
     40 H14        -4.1418    2.9812   -3.0536 H         1 <0>         0.4236
     41 H15        -6.5232    3.2424   -3.5908 H         1 <0>         0.1398
     42 H16        -7.5730    6.1451   -1.1452 H         1 <0>         0.0769
     43 H17        -8.8577    5.0383   -0.6044 H         1 <0>         0.0731
     44 H18        -7.1524    4.6537   -0.2695 H         1 <0>         0.0759
     45 H19         0.2310    6.4194    0.6415 H         1 <0>         0.0769
     46 H20        -0.7612    5.7089    1.9373 H         1 <0>         0.0737
     47 H21         0.6502    4.8240    1.3103 H         1 <0>         0.0782
     48 O3        -10.1434    4.6512   -2.7000 O.co2     1 <0>        -0.7370
@<TRIPOS>BOND
     1    1    2 1
     2    1   28 1
     3    1   29 1
     4    1   30 1
     5    2    3 1
     6    2   31 1
     7    2   32 1
     8    3    4 1
     9    3    5 1
    10    3    6 1
    11    5   33 1
    12    5   34 1
    13    5   35 1
    14    6   11 ar
    15    6    7 ar
    16    7    8 ar
    17    7   36 1
    18    8    9 ar
    19    8   37 1
    20    9   10 ar
    21    9   12 1
    22   10   11 ar
    23   10   38 1
    24   11   39 1
    25   12   16 1
    26   12   13 2
    27   13   14 1
    28   13   27 1
    29   14   15 1
    30   15   16 2
    31   15   19 1
    32   16   17 1
    33   17   18 3
    34   19   20 am
    35   19   40 1
    36   20   21 2
    37   20   22 1
    38   22   23 2
    39   22   41 1
    40   23   24 1
    41   23   25 1
    42   24   42 1
    43   24   43 1
    44   24   44 1
    45   25   26 2
    46   25   48 1
    47   27   45 1
    48   27   46 1
    49   27   47 1
@<TRIPOS>MOLECULE
ZINC13545025
   44    47     0     0     0
SMALL
USER_CHARGES

@<TRIPOS>ATOM
      1 C1         -0.0167    1.3781    0.0096 C.ar      1 <0>        -0.1182
      2 C2          1.1709    2.0855    0.0021 C.ar      1 <0>        -0.1190
      3 C3          2.3773    1.4107   -0.0130 C.ar      1 <0>        -0.1036
      4 C4          2.3960    0.0285   -0.0201 C.ar      1 <0>        -0.0652
      5 C5          1.2084   -0.6789   -0.0117 C.ar      1 <0>        -0.1036
      6 C6          0.0021   -0.0041    0.0020 C.ar      1 <0>        -0.1190
      7 C7          3.7112   -0.7071   -0.0376 C.3       1 <0>        -0.1294
      8 S1          4.2568   -1.0108    1.6656 S.3       1 <0>         0.0313
      9 C8          5.7857   -1.8662    1.4773 C.ar      1 <0>        -0.0498
     10 C9          6.2826   -2.1386    0.2075 C.ar      1 <0>        -0.1467
     11 C10         7.4795   -2.8082    0.0631 C.ar      1 <0>        -0.0767
     12 C11         8.1961   -3.2147    1.1784 C.ar      1 <0>        -0.1393
     13 C12         7.7209   -2.9539    2.4445 C.ar      1 <0>        -0.0654
     14 C13         6.5122   -2.2716    2.6089 C.ar      1 <0>        -0.1179
     15 C14         6.0007   -1.9843    3.9604 C.2       1 <0>         0.5358
     16 O1          4.9464   -1.3944    4.0988 O.2       1 <0>        -0.4196
     17 N1          6.7014   -2.3753    5.0433 N.am      1 <0>        -0.6372
     18 C15         6.2198   -2.1047    6.3160 C.ar      1 <0>         0.5787
     19 N2          6.9271   -2.4994    7.3560 N.ar      1 <0>        -0.6458
     20 C16         6.4948   -2.2560    8.6015 C.ar      1 <0>         0.2181
     21 C17         7.2207   -2.6604    9.7306 C.ar      1 <0>        -0.1509
     22 C18         6.7367   -2.3875   10.9752 C.ar      1 <0>        -0.0789
     23 C19         5.5308   -1.7125   11.1441 C.ar      1 <0>        -0.2011
     24 C20         4.7993   -1.3053   10.0677 C.ar      1 <0>        -0.0197
     25 C21         5.2682   -1.5692    8.7754 C.ar      1 <0>        -0.2496
     26 C22         4.5530   -1.1701    7.6213 C.ar      1 <0>         0.4834
     27 N3          5.0663   -1.4530    6.4356 N.ar      1 <0>        -0.6131
     28 O2          3.3763   -0.5113    7.7281 O.3       1 <0>        -0.6613
     29 H1         -0.9591    1.9053    0.0259 H         1 <0>         0.1214
     30 H2          1.1563    3.1654    0.0076 H         1 <0>         0.1230
     31 H3          3.3051    1.9634   -0.0196 H         1 <0>         0.1235
     32 H4          1.2231   -1.7588   -0.0176 H         1 <0>         0.1235
     33 H5         -0.9258   -0.5567    0.0082 H         1 <0>         0.1230
     34 H6          3.5884   -1.6586   -0.5549 H         1 <0>         0.0907
     35 H7          4.4573   -0.1052   -0.5563 H         1 <0>         0.0907
     36 H8          5.7306   -1.8258   -0.6664 H         1 <0>         0.1274
     37 H9          7.8611   -3.0177   -0.9252 H         1 <0>         0.1269
     38 H10         9.1320   -3.7390    1.0536 H         1 <0>         0.1294
     39 H11         8.2835   -3.2731    3.3094 H         1 <0>         0.1320
     40 H12         7.5424   -2.8458    4.9329 H         1 <0>         0.4095
     41 H13         8.1575   -3.1852    9.6149 H         1 <0>         0.1194
     42 H14         7.2971   -2.7002   11.8439 H         1 <0>         0.1123
     43 H15         5.1696   -1.5088   12.1413 H         1 <0>         0.1097
     44 H16         3.8652   -0.7824   10.2111 H         1 <0>         0.1213
@<TRIPOS>BOND
     1    1    6 ar
     2    1    2 ar
     3    1   29 1
     4    2    3 ar
     5    2   30 1
     6    3    4 ar
     7    3   31 1
     8    4    5 ar
     9    4    7 1
    10    5    6 ar
    11    5   32 1
    12    6   33 1
    13    7    8 1
    14    7   34 1
    15    7   35 1
    16    8    9 1
    17    9   14 ar
    18    9   10 ar
    19   10   11 ar
    20   10   36 1
    21   11   12 ar
    22   11   37 1
    23   12   13 ar
    24   12   38 1
    25   13   14 ar
    26   13   39 1
    27   14   15 1
    28   15   16 2
    29   15   17 am
    30   17   40 1
    31   17   18 1
    32   18   19 ar
    33   18   27 ar
    34   19   20 ar
    35   20   25 ar
    36   20   21 ar
    37   21   22 ar
    38   21   41 1
    39   22   23 ar
    40   22   42 1
    41   23   24 ar
    42   23   43 1
    43   24   25 ar
    44   24   44 1
    45   25   26 ar
    46   26   28 1
    47   26   27 ar
@<TRIPOS>MOLECULE
ZINC41170009
   53    55     0     0     0
SMALL
USER_CHARGES

@<TRIPOS>ATOM
      1 C1          2.6166   -1.9655    0.1182 C.3       1 <0>        -0.1112
      2 C2          1.0892   -2.0502    0.1454 C.3       1 <0>        -0.1257
      3 C3          0.4780   -0.6586   -0.1183 C.3       1 <0>        -0.0996
      4 C4          0.2016   -0.0909    1.2961 C.3       1 <0>        -0.1030
      5 C5         -0.2756   -1.3397    2.0784 C.3       1 <0>        -0.1016
      6 H1         -1.3264   -1.5415    1.8706 H         1 <0>         0.0941
      7 C6          0.6101   -2.4833    1.5420 C.3       1 <0>        -0.0198
      8 C7         -0.2055   -3.7738    1.4395 C.3       1 <0>        -0.1457
      9 C8          1.8111   -2.6937    2.4662 C.3       1 <0>        -0.1435
     10 C9         -0.0586   -1.1503    3.5576 C.2       1 <0>         0.5314
     11 O1          0.9055   -0.5307    3.9546 O.2       1 <0>        -0.5198
     12 N1         -0.9359   -1.6693    4.4393 N.am      1 <0>        -0.6633
     13 C10        -0.8011   -1.3951    5.8027 C.ar      1 <0>         0.1898
     14 C11        -0.1478   -0.2458    6.2207 C.ar      1 <0>        -0.1295
     15 C12        -0.0152    0.0239    7.5696 C.ar      1 <0>        -0.0965
     16 C13        -0.5321   -0.8485    8.5124 C.ar      1 <0>        -0.1355
     17 C14        -1.1850   -1.9965    8.1144 C.ar      1 <0>        -0.1286
     18 C15        -1.3312   -2.2784    6.7548 C.ar      1 <0>         0.0381
     19 N2         -1.9827   -3.4117    6.3537 N.2       1 <0>        -0.4726
     20 C16        -1.8734   -4.5071    7.0505 C.2       1 <0>         0.1891
     21 C17        -2.4841   -5.7548    6.5616 C.ar      1 <0>        -0.0756
     22 C18        -3.1769   -5.7690    5.3474 C.ar      1 <0>        -0.0687
     23 C19        -3.7461   -6.9413    4.8962 C.ar      1 <0>        -0.1263
     24 C20        -3.6327   -8.1015    5.6420 C.ar      1 <0>        -0.1024
     25 C21        -2.9484   -8.0953    6.8449 C.ar      1 <0>        -0.1293
     26 C22        -2.3689   -6.9321    7.3064 C.ar      1 <0>        -0.0906
     27 C23         0.6084   -3.0314   -0.8926 C.2       1 <0>         0.5094
     28 O2          1.4137   -3.6260   -1.5886 O.co2     1 <0>        -0.6969
     29 O3         -0.5858   -3.2305   -1.0362 O.co2     1 <0>        -0.6925
     30 H2          3.0389   -2.9421    0.3550 H         1 <0>         0.0510
     31 H3          2.9458   -1.6583   -0.8744 H         1 <0>         0.0465
     32 H4          2.9532   -1.2359    0.8547 H         1 <0>         0.0361
     33 H5          1.1870   -0.0253   -0.6516 H         1 <0>         0.0582
     34 H6         -0.4511   -0.7503   -0.6808 H         1 <0>         0.0721
     35 H7          1.1135    0.3144    1.7347 H         1 <0>         0.0769
     36 H8         -0.5817    0.6662    1.2622 H         1 <0>         0.0610
     37 H9          0.4144   -4.5624    1.0129 H         1 <0>         0.0517
     38 H10        -0.5400   -4.0721    2.4331 H         1 <0>         0.0248
     39 H11        -1.0718   -3.6063    0.7995 H         1 <0>         0.0994
     40 H12         2.3213   -1.7430    2.6210 H         1 <0>         0.0661
     41 H13         1.4680   -3.0823    3.4251 H         1 <0>         0.0353
     42 H14         2.4996   -3.4056    2.0110 H         1 <0>         0.0595
     43 H15        -1.6610   -2.2331    4.1273 H         1 <0>         0.4186
     44 H16         0.2583    0.4393    5.4913 H         1 <0>         0.1527
     45 H17         0.4948    0.9202    7.8902 H         1 <0>         0.1264
     46 H18        -0.4232   -0.6293    9.5643 H         1 <0>         0.1227
     47 H19        -1.5862   -2.6742    8.8534 H         1 <0>         0.1239
     48 H20        -1.3350   -4.5001    7.9866 H         1 <0>         0.1069
     49 H21        -3.2665   -4.8643    4.7645 H         1 <0>         0.1351
     50 H22        -4.2820   -6.9538    3.9586 H         1 <0>         0.1276
     51 H23        -4.0809   -9.0165    5.2836 H         1 <0>         0.1233
     52 H24        -2.8641   -9.0047    7.4213 H         1 <0>         0.1247
     53 H25        -1.8313   -6.9298    8.2431 H         1 <0>         0.1259
@<TRIPOS>BOND
     1    1    2 1
     2    1   30 1
     3    1   31 1
     4    1   32 1
     5    2    7 1
     6    2    3 1
     7    2   27 1
     8    3    4 1
     9    3   33 1
    10    3   34 1
    11    4    5 1
    12    4   35 1
    13    4   36 1
    14    5    6 1
    15    5    7 1
    16    5   10 1
    17    7    8 1
    18    7    9 1
    19    8   37 1
    20    8   38 1
    21    8   39 1
    22    9   40 1
    23    9   41 1
    24    9   42 1
    25   10   11 2
    26   10   12 am
    27   12   13 1
    28   12   43 1
    29   13   18 ar
    30   13   14 ar
    31   14   15 ar
    32   14   44 1
    33   15   16 ar
    34   15   45 1
    35   16   17 ar
    36   16   46 1
    37   17   18 ar
    38   17   47 1
    39   18   19 1
    40   19   20 2
    41   20   21 1
    42   20   48 1
    43   21   26 ar
    44   21   22 ar
    45   22   23 ar
    46   22   49 1
    47   23   24 ar
    48   23   50 1
    49   24   25 ar
    50   24   51 1
    51   25   26 ar
    52   25   52 1
    53   26   53 1
    54   27   28 2
    55   27   29 1
@<TRIPOS>MOLECULE
ZINC37613810
   44    47     0     0     0
SMALL
USER_CHARGES

@<TRIPOS>ATOM
      1 C1         -0.0173    1.4248    0.0099 C.3       1 <0>         0.0349
      2 O1          0.0021   -0.0041    0.0020 O.3       1 <0>        -0.3519
      3 C2          0.6005   -0.6018   -1.0464 C.2       1 <0>         0.5088
      4 O2          1.0924    0.0714   -1.9298 O.2       1 <0>        -0.5071
      5 C3          0.6585   -2.0760   -1.1219 C.ar      1 <0>        -0.1341
      6 C4          0.0891   -2.8529   -0.1110 C.ar      1 <0>        -0.0672
      7 C5          0.1469   -4.2290   -0.1877 C.ar      1 <0>        -0.1312
      8 C6          0.7674   -4.8396   -1.2632 C.ar      1 <0>        -0.0452
      9 C7          1.3341   -4.0758   -2.2682 C.ar      1 <0>        -0.0873
     10 C8          1.2780   -2.6989   -2.2072 C.ar      1 <0>        -0.0556
     11 C9          0.8266   -6.3435   -1.3401 C.3       1 <0>         0.2062
     12 H1          0.6668   -6.7470   -0.3402 H         1 <0>         0.0844
     13 C10        -0.2946   -6.8241   -2.2380 C.3       1 <0>        -0.0999
     14 H2         -0.6261   -7.8214   -1.9488 H         1 <0>         0.0876
     15 C11        -1.4580   -5.7969   -2.1490 C.3       1 <0>        -0.0871
     16 C12        -1.1951   -4.8383   -3.2894 C.2       1 <0>        -0.2188
     17 C13        -0.3689   -5.3622   -4.1597 C.2       1 <0>        -0.0672
     18 C14         0.0412   -6.7668   -3.7267 C.3       1 <0>        -0.0106
     19 H3         -0.5904   -7.4855   -4.2488 H         1 <0>         0.1282
     20 C15         1.4613   -7.0824   -4.0541 C.ar      1 <0>        -0.0999
     21 C16         1.8036   -7.3874   -5.3804 C.ar      1 <0>        -0.0868
     22 C17         3.1223   -7.6988   -5.7115 C.ar      1 <0>        -0.1254
     23 C18         4.0952   -7.7097   -4.7336 C.ar      1 <0>        -0.0859
     24 C19         3.7631   -7.4049   -3.4266 C.ar      1 <0>        -0.1135
     25 C20         2.4496   -7.0847   -3.0875 C.ar      1 <0>         0.2117
     26 N1          2.1473   -6.7293   -1.7859 N.pl3     1 <0>        -0.7323
     27 Cl1         4.9905   -7.4219   -2.1991 Cl        1 <0>        -0.0951
     28 C21         0.7653   -7.3791   -6.4278 C.2       1 <0>         0.5179
     29 O3          1.0613   -7.6447   -7.5844 O.co2     1 <0>        -0.6836
     30 O4         -0.3917   -7.1068   -6.1398 O.co2     1 <0>        -0.6683
     31 H4          1.0053    1.8021    0.0021 H         1 <0>         0.0594
     32 H5         -0.5445    1.7859   -0.8732 H         1 <0>         0.0603
     33 H6         -0.5275    1.7763    0.9067 H         1 <0>         0.1011
     34 H7         -0.3952   -2.3775    0.7291 H         1 <0>         0.1330
     35 H8         -0.2928   -4.8311    0.5936 H         1 <0>         0.1291
     36 H9          1.8175   -4.5588   -3.1045 H         1 <0>         0.1329
     37 H10         1.7165   -2.1039   -2.9947 H         1 <0>         0.1322
     38 H11        -2.4180   -6.2953   -2.2833 H         1 <0>         0.0699
     39 H12        -1.4304   -5.2710   -1.1946 H         1 <0>         0.0733
     40 H13        -1.6303   -3.8535   -3.3742 H         1 <0>         0.1136
     41 H14        -0.0257   -4.8713   -5.0584 H         1 <0>         0.1167
     42 H15         3.3817   -7.9319   -6.7336 H         1 <0>         0.1323
     43 H16         5.1152   -7.9564   -4.9886 H         1 <0>         0.1243
     44 H17         2.8625   -6.7635   -1.1315 H         1 <0>         0.3962
@<TRIPOS>BOND
     1    1    2 1
     2    1   31 1
     3    1   32 1
     4    1   33 1
     5    2    3 1
     6    3    4 2
     7    3    5 1
     8    5   10 ar
     9    5    6 ar
    10    6    7 ar
    11    6   34 1
    12    7    8 ar
    13    7   35 1
    14    8    9 ar
    15    8   11 1
    16    9   10 ar
    17    9   36 1
    18   10   37 1
    19   11   12 1
    20   11   26 1
    21   11   13 1
    22   13   14 1
    23   13   18 1
    24   13   15 1
    25   15   16 1
    26   15   38 1
    27   15   39 1
    28   16   17 2
    29   16   40 1
    30   17   18 1
    31   17   41 1
    32   18   19 1
    33   18   20 1
    34   20   25 ar
    35   20   21 ar
    36   21   22 ar
    37   21   28 1
    38   22   23 ar
    39   22   42 1
    40   23   24 ar
    41   23   43 1
    42   24   25 ar
    43   24   27 1
    44   25   26 1
    45   26   44 1
    46   28   29 2
    47   28   30 1
@<TRIPOS>MOLECULE
ZINC66508990
   42    44     0     0     0
SMALL
USER_CHARGES

@<TRIPOS>ATOM
      1 C1         -0.2776    2.3844    0.6450 C.2       1 <0>        -0.1755
      2 C2         -0.1121    1.0961    0.4745 C.2       1 <0>        -0.1696
      3 C3          1.2774    0.5144    0.4297 C.3       1 <0>         0.1409
      4 N1          1.3940   -0.5491    1.4306 N.pl3     1 <0>        -0.4763
      5 C4          1.8774   -0.3798    2.6839 C.2       1 <0>         0.0675
      6 C5          1.8479   -1.5715    3.3547 C.2       1 <0>        -0.1282
      7 C6          1.2911   -2.5643    2.4158 C.ar      1 <0>        -0.0425
      8 C7          1.0209   -1.8627    1.2301 C.ar      1 <0>         0.0980
      9 C8          0.4756   -2.5413    0.1455 C.ar      1 <0>        -0.1343
     10 C9          0.2028   -3.8887    0.2439 C.ar      1 <0>        -0.1113
     11 C10         0.4665   -4.5791    1.4175 C.ar      1 <0>        -0.1560
     12 C11         1.0149   -3.9258    2.5002 C.ar      1 <0>        -0.0606
     13 C12         2.2830   -1.8139    4.7302 C.2       1 <0>         0.4314
     14 O1          3.5833   -1.6691    5.0622 O.3       1 <0>        -0.6367
     15 C13         1.3537   -2.1948    5.6992 C.2       1 <0>        -0.4156
     16 C14         1.7968   -2.5672    7.0090 C.1       1 <0>         0.3133
     17 N2          2.1483   -2.8625    8.0481 N.1       1 <0>        -0.5328
     18 C15        -0.0737   -2.2138    5.3767 C.2       1 <0>         0.5924
     19 O2         -0.4548   -1.8493    4.2792 O.2       1 <0>        -0.5381
     20 N3         -0.9664   -2.6347    6.2945 N.am      1 <0>        -0.6826
     21 C16        -2.3384   -2.5683    6.0191 C.ar      1 <0>         0.1424
     22 C17        -2.7908   -2.6736    4.7111 C.ar      1 <0>        -0.0790
     23 C18        -4.1440   -2.6079    4.4413 C.ar      1 <0>        -0.1392
     24 C19        -5.0503   -2.4370    5.4743 C.ar      1 <0>         0.0869
     25 C20        -4.6030   -2.3316    6.7804 C.ar      1 <0>        -0.1703
     26 C21        -3.2497   -2.4025    7.0562 C.ar      1 <0>         0.0776
     27 F1         -2.8132   -2.3053    8.3310 F         1 <0>        -0.1329
     28 F2         -6.3731   -2.3727    5.2071 F         1 <0>        -0.1408
     29 H1          0.5817    3.0296    0.7535 H         1 <0>         0.0976
     30 H2         -1.2732    2.8019    0.6726 H         1 <0>         0.1004
     31 H3         -0.9714    0.4510    0.3660 H         1 <0>         0.1140
     32 H4          1.4672    0.1027   -0.5615 H         1 <0>         0.0894
     33 H5          2.0058    1.2964    0.6440 H         1 <0>         0.0900
     34 H6          2.2327    0.5548    3.0922 H         1 <0>         0.1621
     35 H7          0.2658   -2.0130   -0.7727 H         1 <0>         0.1088
     36 H8         -0.2207   -4.4118   -0.6008 H         1 <0>         0.1148
     37 H9          0.2475   -5.6348    1.4810 H         1 <0>         0.1139
     38 H10         1.2186   -4.4653    3.4134 H         1 <0>         0.1163
     39 H11        -0.6590   -2.9836    7.1457 H         1 <0>         0.4071
     40 H12        -2.0850   -2.8065    3.9045 H         1 <0>         0.1737
     41 H13        -4.4956   -2.6895    3.4234 H         1 <0>         0.1396
     42 H14        -5.3116   -2.1984    7.5845 H         1 <0>         0.1442
@<TRIPOS>BOND
     1    1    2 2
     2    1   29 1
     3    1   30 1
     4    2    3 1
     5    2   31 1
     6    3    4 1
     7    3   32 1
     8    3   33 1
     9    4    8 1
    10    4    5 1
    11    5    6 2
    12    5   34 1
    13    6    7 1
    14    6   13 1
    15    7   12 ar
    16    7    8 ar
    17    8    9 ar
    18    9   10 ar
    19    9   35 1
    20   10   11 ar
    21   10   36 1
    22   11   12 ar
    23   11   37 1
    24   12   38 1
    25   13   14 1
    26   13   15 2
    27   15   16 1
    28   15   18 1
    29   16   17 3
    30   18   19 2
    31   18   20 am
    32   20   21 1
    33   20   39 1
    34   21   26 ar
    35   21   22 ar
    36   22   23 ar
    37   22   40 1
    38   23   24 ar
    39   23   41 1
    40   24   25 ar
    41   24   28 1
    42   25   26 ar
    43   25   42 1
    44   26   27 1
@<TRIPOS>MOLECULE
ZINC00844475
   45    48     0     0     0
SMALL
USER_CHARGES
1,3-benzodioxol-5-ylmethyl (4S)-4-(3,4-dichlorophenyl)-6-methyl-2-oxo-3,4-dihydro-1H-pyrimidine-5-carboxylate
@<TRIPOS>ATOM
      1 C1          4.5762    1.2614   -3.2498 C.3       1 <0>        -0.1253
      2 C2          4.1120    1.4004   -1.8228 C.2       1 <0>         0.2634
      3 C3          2.9176    0.8853   -1.4597 C.2       1 <0>        -0.2864
      4 C4          2.4897    1.0470   -0.0151 C.3       1 <0>         0.2396
      5 H1          2.3196    0.0526    0.3977 H         1 <0>         0.0975
      6 N1          3.4182    1.7574    0.8803 N.am      1 <0>        -0.7111
      7 C5          4.5779    2.2156    0.3690 C.2       1 <0>         0.7052
      8 O1          5.3512    2.8034    1.0999 O.2       1 <0>        -0.5560
      9 N2          4.9060    2.0450   -0.9179 N.am      1 <0>        -0.6454
     10 C6          1.1748    1.7831    0.0004 C.ar      1 <0>        -0.0962
     11 C7          1.1570    3.1656    0.0075 C.ar      1 <0>        -0.0841
     12 C8         -0.0482    3.8419    0.0222 C.ar      1 <0>        -0.1024
     13 C9         -1.2378    3.1355    0.0298 C.ar      1 <0>        -0.0265
     14 C10        -1.2199    1.7512    0.0173 C.ar      1 <0>        -0.0369
     15 C11        -0.0126    1.0758    0.0080 C.ar      1 <0>        -0.0573
     16 Cl1        -2.7117    0.8633    0.0195 Cl        1 <0>        -0.0384
     17 Cl2        -2.7519    3.9844    0.0488 Cl        1 <0>        -0.0475
     18 C12         2.0941    0.2173   -2.3959 C.2       1 <0>         0.5363
     19 O2          2.4581    0.0993   -3.5510 O.2       1 <0>        -0.5126
     20 O3          0.9049   -0.2890   -2.0081 O.3       1 <0>        -0.3422
     21 C13         0.1251   -0.9509   -3.0061 C.3       1 <0>         0.1157
     22 C14        -1.1592   -1.4466   -2.3930 C.ar      1 <0>        -0.0934
     23 C15        -2.2784   -0.6350   -2.3860 C.ar      1 <0>        -0.0676
     24 C16        -3.4590   -1.0854   -1.8253 C.ar      1 <0>        -0.1004
     25 C17        -3.5229   -2.3523   -1.2681 C.ar      1 <0>         0.0466
     26 C18        -2.3955   -3.1699   -1.2752 C.ar      1 <0>         0.0285
     27 C19        -1.2173   -2.7140   -1.8441 C.ar      1 <0>        -0.0745
     28 O4         -2.7114   -4.3540   -0.6741 O.3       1 <0>        -0.3071
     29 C20        -3.9215   -4.0997    0.0636 C.3       1 <0>         0.2129
     30 O5         -4.5452   -3.0242   -0.6626 O.3       1 <0>        -0.3074
     31 H2          5.5532    1.7316   -3.3614 H         1 <0>         0.0718
     32 H3          4.6500    0.2047   -3.5066 H         1 <0>         0.1089
     33 H4          3.8611    1.7475   -3.9134 H         1 <0>         0.1084
     34 H5          3.2002    1.8926    1.8158 H         1 <0>         0.4354
     35 H6          5.7555    2.3989   -1.2245 H         1 <0>         0.4319
     36 H7          2.0854    3.7173    0.0020 H         1 <0>         0.1300
     37 H8         -0.0614    4.9218    0.0281 H         1 <0>         0.1419
     38 H9          0.0021   -0.0041    0.0020 H         1 <0>         0.1506
     39 H10        -0.1025   -0.2527   -3.8116 H         1 <0>         0.0824
     40 H11         0.6869   -1.7954   -3.4052 H         1 <0>         0.0816
     41 H12        -2.2302    0.3531   -2.8192 H         1 <0>         0.1380
     42 H13        -4.3318   -0.4493   -1.8212 H         1 <0>         0.1351
     43 H14        -0.3427   -3.3475   -1.8549 H         1 <0>         0.1374
     44 H15        -3.6907   -3.7903    1.0830 H         1 <0>         0.0860
     45 H16        -4.5625   -4.9813    0.0680 H         1 <0>         0.1335
@<TRIPOS>BOND
     1    1    2 1
     2    1   31 1
     3    1   32 1
     4    1   33 1
     5    2    9 1
     6    2    3 2
     7    3    4 1
     8    3   18 1
     9    4    5 1
    10    4    6 1
    11    4   10 1
    12    6    7 am
    13    6   34 1
    14    7    8 2
    15    7    9 am
    16    9   35 1
    17   10   15 ar
    18   10   11 ar
    19   11   12 ar
    20   11   36 1
    21   12   13 ar
    22   12   37 1
    23   13   14 ar
    24   13   17 1
    25   14   15 ar
    26   14   16 1
    27   15   38 1
    28   18   19 2
    29   18   20 1
    30   20   21 1
    31   21   22 1
    32   21   39 1
    33   21   40 1
    34   22   27 ar
    35   22   23 ar
    36   23   24 ar
    37   23   41 1
    38   24   25 ar
    39   24   42 1
    40   25   30 1
    41   25   26 ar
    42   26   27 ar
    43   26   28 1
    44   27   43 1
    45   28   29 1
    46   29   30 1
    47   29   44 1
    48   29   45 1
@<TRIPOS>MOLECULE
ZINC26688558
   56    59     0     0     0
SMALL
USER_CHARGES
2-[(2R)-1-[(E)-3-(4-methoxyphenyl)prop-2-enoyl]-3-oxo-2,4-dihydroquinoxalin-2-yl]-N-phenyl-acetamide
@<TRIPOS>ATOM
      1 C1         -7.1626    5.6176    1.4723 C.3       1 <0>         0.0226
      2 O1         -7.2610    4.2170    1.2062 O.3       1 <0>        -0.3154
      3 C2         -6.1015    3.5513    0.9720 C.ar      1 <0>         0.1363
      4 C3         -6.1275    2.1870    0.7065 C.ar      1 <0>        -0.1540
      5 C4         -4.9543    1.5070    0.4692 C.ar      1 <0>        -0.0580
      6 C5         -3.7338    2.1918    0.4951 C.ar      1 <0>        -0.1005
      7 C6         -3.7126    3.5645    0.7682 C.ar      1 <0>        -0.0555
      8 C7         -4.8920    4.2362    0.9989 C.ar      1 <0>        -0.2105
      9 C8         -2.4780    1.4707    0.2424 C.2       1 <0>        -0.0320
     10 C9         -1.3022    2.1334    0.2680 C.2       1 <0>        -0.1628
     11 C10        -0.0531    1.4161    0.0166 C.2       1 <0>         0.5733
     12 O2         -0.0620    0.2059   -0.1155 O.2       1 <0>        -0.5214
     13 N1          1.1090    2.0941   -0.0634 N.am      1 <0>        -0.5537
     14 C11         2.3197    1.4289   -0.3060 C.ar      1 <0>         0.1112
     15 C12         2.3536    0.2595   -1.0491 C.ar      1 <0>        -0.0900
     16 C13         3.5634   -0.3702   -1.2805 C.ar      1 <0>        -0.1196
     17 C14         4.7344    0.1668   -0.7771 C.ar      1 <0>        -0.1022
     18 C15         4.7065    1.3346   -0.0371 C.ar      1 <0>        -0.1326
     19 C16         3.4991    1.9713    0.2014 C.ar      1 <0>         0.1275
     20 N2          3.4482    3.1512    0.9517 N.am      1 <0>        -0.6649
     21 C17         2.3414    3.9179    0.9541 C.2       1 <0>         0.5183
     22 O3          2.3033    4.9130    1.6466 O.2       1 <0>        -0.5109
     23 C18         1.1488    3.5542    0.1071 C.3       1 <0>         0.1382
     24 H1          0.2214    3.8632    0.6115 H         1 <0>         0.1433
     25 C19         1.2694    4.2263   -1.2620 C.3       1 <0>        -0.1538
     26 C20         0.0248    3.9535   -2.0669 C.2       1 <0>         0.5165
     27 O4         -0.8705    3.2872   -1.5921 O.2       1 <0>        -0.5030
     28 N3         -0.0933    4.4501   -3.3142 N.am      1 <0>        -0.6821
     29 C21        -1.2865    4.2796   -4.0250 C.ar      1 <0>         0.1464
     30 C22        -2.0222    3.1108   -3.8795 C.ar      1 <0>        -0.1166
     31 C23        -3.2020    2.9475   -4.5788 C.ar      1 <0>        -0.1007
     32 C24        -3.6456    3.9422   -5.4308 C.ar      1 <0>        -0.1336
     33 C25        -2.9127    5.1050   -5.5820 C.ar      1 <0>        -0.1030
     34 C26        -1.7345    5.2764   -4.8819 C.ar      1 <0>        -0.1456
     35 H2         -8.1680    6.0299    1.6430 H         1 <0>         0.1033
     36 H3         -6.7004    6.1228    0.6114 H         1 <0>         0.0573
     37 H4         -6.5436    5.7782    2.3673 H         1 <0>         0.0578
     38 H5         -7.0697    1.6595    0.6867 H         1 <0>         0.1335
     39 H6         -4.9755    0.4469    0.2637 H         1 <0>         0.1340
     40 H7         -2.7731    4.0965    0.7941 H         1 <0>         0.1257
     41 H8         -4.8771    5.2961    1.2056 H         1 <0>         0.1292
     42 H9         -2.4964    0.3911    0.0324 H         1 <0>         0.1329
     43 H10        -1.2838    3.2130    0.4780 H         1 <0>         0.1314
     44 H11         1.4397   -0.1604   -1.4427 H         1 <0>         0.1472
     45 H12         3.5937   -1.2835   -1.8561 H         1 <0>         0.1307
     46 H13         5.6758   -0.3289   -0.9627 H         1 <0>         0.1309
     47 H14         5.6237    1.7492    0.3543 H         1 <0>         0.1338
     48 H15         4.3186    3.4615    1.5484 H         1 <0>         0.4427
     49 H16         1.3891    5.3116   -1.1284 H         1 <0>         0.1235
     50 H17         2.1448    3.8234   -1.7924 H         1 <0>         0.1098
     51 H18         0.7483    4.9894   -3.7734 H         1 <0>         0.4340
     52 H19        -1.6739    2.3317   -3.2175 H         1 <0>         0.1371
     53 H20        -3.7763    2.0402   -4.4634 H         1 <0>         0.1237
     54 H21        -4.5664    3.8104   -5.9797 H         1 <0>         0.1220
     55 H22        -3.2616    5.8798   -6.2485 H         1 <0>         0.1248
     56 H23        -1.1622    6.1844   -5.0009 H         1 <0>         0.1235
@<TRIPOS>BOND
     1    1    2 1
     2    1   35 1
     3    1   36 1
     4    1   37 1
     5    2    3 1
     6    3    8 ar
     7    3    4 ar
     8    4    5 ar
     9    4   38 1
    10    5    6 ar
    11    5   39 1
    12    6    7 ar
    13    6    9 1
    14    7    8 ar
    15    7   40 1
    16    8   41 1
    17    9   10 2
    18    9   42 1
    19   10   11 1
    20   10   43 1
    21   11   12 2
    22   11   13 am
    23   13   23 1
    24   13   14 1
    25   14   19 ar
    26   14   15 ar
    27   15   16 ar
    28   15   44 1
    29   16   17 ar
    30   16   45 1
    31   17   18 ar
    32   17   46 1
    33   18   19 ar
    34   18   47 1
    35   19   20 1
    36   20   21 am
    37   20   48 1
    38   21   22 2
    39   21   23 1
    40   23   24 1
    41   23   25 1
    42   25   26 1
    43   25   49 1
    44   25   50 1
    45   26   27 2
    46   26   28 am
    47   28   29 1
    48   28   51 1
    49   29   34 ar
    50   29   30 ar
    51   30   31 ar
    52   30   52 1
    53   31   32 ar
    54   31   53 1
    55   32   33 ar
    56   32   54 1
    57   33   34 ar
    58   33   55 1
    59   34   56 1
@<TRIPOS>MOLECULE
ZINC36235046
   50    53     0     0     0
SMALL
USER_CHARGES

@<TRIPOS>ATOM
      1 C1          0.2355    3.3166    1.0598 C.ar      1 <0>        -0.0863
      2 C2          1.4853    3.7255    0.6296 C.ar      1 <0>        -0.1247
      3 C3          2.4666    2.7925    0.3655 C.ar      1 <0>        -0.0530
      4 C4          2.1963    1.4333    0.5332 C.ar      1 <0>        -0.1391
      5 C5          0.9332    1.0276    0.9676 C.ar      1 <0>        -0.0866
      6 C6         -0.0390    1.9709    1.2281 C.ar      1 <0>        -0.1244
      7 C7          3.2428    0.4281    0.2517 C.2       1 <0>         0.5475
      8 O1          4.3090    0.7757   -0.2178 O.2       1 <0>        -0.4830
      9 N1          3.0150   -0.8738    0.5155 N.am      1 <0>        -0.6573
     10 C8          4.0425   -1.8097    0.3574 C.2       1 <0>         0.1033
     11 C9          3.7930   -3.1278    0.5453 C.2       1 <0>        -0.1304
     12 C10         2.4121   -3.5950    0.7312 C.ar      1 <0>        -0.0397
     13 C11         1.3621   -2.9727    0.0463 C.ar      1 <0>        -0.1264
     14 C12         0.0689   -3.4134    0.2224 C.ar      1 <0>        -0.0908
     15 C13        -0.1985   -4.4741    1.0776 C.ar      1 <0>         0.0367
     16 C14         0.8431   -5.0996    1.7641 C.ar      1 <0>         0.0418
     17 C15         2.1433   -4.6675    1.5892 C.ar      1 <0>        -0.0851
     18 O2          0.3199   -6.1009    2.5309 O.3       1 <0>        -0.3055
     19 C16        -1.0888   -5.8180    2.6226 C.3       1 <0>         0.2121
     20 O3         -1.3707   -5.0853    1.4159 O.3       1 <0>        -0.3051
     21 C17         5.3912   -1.3635   -0.0122 C.2       1 <0>         0.5925
     22 O4          5.6890   -1.2330   -1.1853 O.2       1 <0>        -0.4661
     23 N2          6.2998   -1.0982    0.9472 N.am      1 <0>        -0.5772
     24 N3          7.5514   -0.5726    0.6007 N.2       1 <0>        -0.2065
     25 C18         8.4704   -0.4336    1.5068 C.2       1 <0>         0.1058
     26 C19         8.4273   -1.2525    2.7322 C.ar      1 <0>        -0.0957
     27 C20         7.5300   -2.3186    2.8324 C.ar      1 <0>        -0.1279
     28 C21         7.4947   -3.0805    3.9813 C.ar      1 <0>        -0.1021
     29 C22         8.3463   -2.7907    5.0344 C.ar      1 <0>        -0.0242
     30 C23         9.2382   -1.7353    4.9415 C.ar      1 <0>        -0.1057
     31 C24         9.2876   -0.9691    3.7960 C.ar      1 <0>        -0.0740
     32 Cl1         8.2951   -3.7544    6.4775 Cl        1 <0>        -0.0602
     33 H1         -0.5279    4.0513    1.2695 H         1 <0>         0.1313
     34 H2          1.6930    4.7773    0.4999 H         1 <0>         0.1341
     35 H3          3.4417    3.1130    0.0294 H         1 <0>         0.1388
     36 H4          0.7176   -0.0225    1.0990 H         1 <0>         0.1237
     37 H5         -1.0167    1.6584    1.5643 H         1 <0>         0.1328
     38 H6          2.1385   -1.1619    0.8150 H         1 <0>         0.4189
     39 H7          4.6089   -3.8353    0.5586 H         1 <0>         0.1507
     40 H8          1.5656   -2.1471   -0.6195 H         1 <0>         0.1428
     41 H9         -0.7402   -2.9319   -0.3067 H         1 <0>         0.1421
     42 H10         2.9506   -5.1539    2.1165 H         1 <0>         0.1429
     43 H11        -1.6640   -6.7434    2.6519 H         1 <0>         0.1352
     44 H12        -1.3003   -5.2067    3.5000 H         1 <0>         0.0880
     45 H13         6.0872   -1.2712    1.8777 H         1 <0>         0.3948
     46 H14         9.2667    0.2817    1.3630 H         1 <0>         0.1919
     47 H15         6.8652   -2.5454    2.0121 H         1 <0>         0.1436
     48 H16         6.8013   -3.9047    4.0602 H         1 <0>         0.1401
     49 H17         9.8993   -1.5143    5.7665 H         1 <0>         0.1412
     50 H18         9.9866   -0.1491    3.7230 H         1 <0>         0.1446
@<TRIPOS>BOND
     1    1    6 ar
     2    1    2 ar
     3    1   33 1
     4    2    3 ar
     5    2   34 1
     6    3    4 ar
     7    3   35 1
     8    4    5 ar
     9    4    7 1
    10    5    6 ar
    11    5   36 1
    12    6   37 1
    13    7    8 2
    14    7    9 am
    15    9   10 1
    16    9   38 1
    17   10   11 2
    18   10   21 1
    19   11   12 1
    20   11   39 1
    21   12   17 ar
    22   12   13 ar
    23   13   14 ar
    24   13   40 1
    25   14   15 ar
    26   14   41 1
    27   15   20 1
    28   15   16 ar
    29   16   17 ar
    30   16   18 1
    31   17   42 1
    32   18   19 1
    33   19   20 1
    34   19   43 1
    35   19   44 1
    36   21   22 2
    37   21   23 am
    38   23   24 1
    39   23   45 1
    40   24   25 2
    41   25   26 1
    42   25   46 1
    43   26   31 ar
    44   26   27 ar
    45   27   28 ar
    46   27   47 1
    47   28   29 ar
    48   28   48 1
    49   29   30 ar
    50   29   32 1
    51   30   31 ar
    52   30   49 1
    53   31   50 1
@<TRIPOS>MOLECULE
ZINC33514664
   59    63     0     0     0
SMALL
USER_CHARGES

@<TRIPOS>ATOM
      1 C1         -0.0187    1.5258    0.0104 C.3       1 <0>        -0.1201
      2 C2          0.0021   -0.0041    0.0020 C.3       1 <0>         0.0164
      3 C3         -1.3885   -0.7104    0.0566 C.3       1 <0>        -0.1150
      4 C4         -1.0599   -2.1546    0.5042 C.3       1 <0>        -0.1037
      5 C5          0.4920   -2.1572    0.6693 C.3       1 <0>        -0.1419
      6 C6          0.7264   -0.7008    1.2095 C.3       1 <0>        -0.0223
      7 C7         -0.0005   -0.4682    2.5356 C.3       1 <0>        -0.1396
      8 C8          2.2070   -0.3248    1.2942 C.3       1 <0>        -0.1383
      9 C9          1.0244   -2.0041   -0.7617 C.2       1 <0>         0.3958
     10 O1          1.5943   -2.8534   -1.4171 O.2       1 <0>        -0.4605
     11 C10         0.7375   -0.6639   -1.1721 C.2       1 <0>        -0.0793
     12 N1          1.0207   -0.1125   -2.3234 N.2       1 <0>        -0.1209
     13 N2          1.6476   -0.7887   -3.2256 N.pl3     1 <0>        -0.4945
     14 C11         1.9499   -0.2002   -4.4543 C.ar      1 <0>         0.1650
     15 C12         1.5815    1.1161   -4.7058 C.ar      1 <0>        -0.1369
     16 C13         1.8822    1.6950   -5.9227 C.ar      1 <0>        -0.0899
     17 C14         2.5493    0.9666   -6.8909 C.ar      1 <0>        -0.1413
     18 C15         2.9176   -0.3434   -6.6443 C.ar      1 <0>        -0.0863
     19 C16         2.6252   -0.9272   -5.4275 C.ar      1 <0>        -0.1558
     20 C17         1.0698   -3.2796    1.4923 C.2       1 <0>         0.5544
     21 O2          1.6906   -3.0321    2.5044 O.2       1 <0>        -0.5201
     22 N3          0.8966   -4.5585    1.1038 N.am      1 <0>        -0.7187
     23 C18         1.4583   -5.6496    1.9039 C.3       1 <0>         0.1669
     24 C19         1.1256   -6.9695    1.2573 C.ar      1 <0>        -0.1025
     25 C20        -0.0435   -7.6267    1.5928 C.ar      1 <0>        -0.0876
     26 C21        -0.3533   -8.8375    1.0020 C.ar      1 <0>        -0.1019
     27 C22         0.5084   -9.3957    0.0718 C.ar      1 <0>         0.0417
     28 C23         1.6861   -8.7337   -0.2662 C.ar      1 <0>         0.0308
     29 C24         1.9873   -7.5177    0.3257 C.ar      1 <0>        -0.0793
     30 O3          2.3552   -9.4795   -1.1931 O.3       1 <0>        -0.3072
     31 C25         1.7783  -10.7965   -1.1160 C.3       1 <0>         0.2126
     32 O4          0.4396  -10.5562   -0.6435 O.3       1 <0>        -0.3075
     33 H1          1.0039    1.9031    0.0027 H         1 <0>         0.0649
     34 H2         -0.5459    1.8868   -0.8726 H         1 <0>         0.0680
     35 H3         -0.5289    1.8773    0.9072 H         1 <0>         0.0689
     36 H4         -2.0361   -0.2229    0.7853 H         1 <0>         0.0891
     37 H5         -1.8546   -0.7127   -0.9287 H         1 <0>         0.0757
     38 H6         -1.5454   -2.3799    1.4538 H         1 <0>         0.0918
     39 H7         -1.3638   -2.8698   -0.2602 H         1 <0>         0.0739
     40 H8         -1.0116   -0.8702    2.4711 H         1 <0>         0.0635
     41 H9          0.5394   -0.9697    3.3387 H         1 <0>         0.0728
     42 H10        -0.0472    0.6012    2.7416 H         1 <0>         0.0660
     43 H11         2.3014    0.7537    1.4209 H         1 <0>         0.0680
     44 H12         2.6626   -0.8318    2.1448 H         1 <0>         0.0761
     45 H13         2.7120   -0.6284    0.3772 H         1 <0>         0.0438
     46 H14         1.9088   -1.7062   -3.0499 H         1 <0>         0.4039
     47 H15         1.0602    1.6853   -3.9504 H         1 <0>         0.1375
     48 H16         1.5959    2.7177   -6.1190 H         1 <0>         0.1299
     49 H17         2.7829    1.4219   -7.8420 H         1 <0>         0.1266
     50 H18         3.4384   -0.9092   -7.4026 H         1 <0>         0.1303
     51 H19         2.9174   -1.9487   -5.2338 H         1 <0>         0.1266
     52 H20         0.4001   -4.7565    0.2944 H         1 <0>         0.4034
     53 H21         2.5408   -5.5367    1.9632 H         1 <0>         0.0806
     54 H22         1.0344   -5.6196    2.9076 H         1 <0>         0.0853
     55 H23        -0.7161   -7.1934    2.3183 H         1 <0>         0.1420
     56 H24        -1.2673   -9.3487    1.2660 H         1 <0>         0.1397
     57 H25         2.8977   -7.0000    0.0622 H         1 <0>         0.1375
     58 H26         1.7588  -11.2644   -2.1003 H         1 <0>         0.1343
     59 H27         2.3293  -11.4152   -0.4076 H         1 <0>         0.0874
@<TRIPOS>BOND
     1    1    2 1
     2    1   33 1
     3    1   34 1
     4    1   35 1
     5    2    6 1
     6    2   11 1
     7    2    3 1
     8    3    4 1
     9    3   36 1
    10    3   37 1
    11    4    5 1
    12    4   38 1
    13    4   39 1
    14    5    6 1
    15    5    9 1
    16    5   20 1
    17    6    7 1
    18    6    8 1
    19    7   40 1
    20    7   41 1
    21    7   42 1
    22    8   43 1
    23    8   44 1
    24    8   45 1
    25    9   10 2
    26    9   11 1
    27   11   12 2
    28   12   13 1
    29   13   14 1
    30   13   46 1
    31   14   19 ar
    32   14   15 ar
    33   15   16 ar
    34   15   47 1
    35   16   17 ar
    36   16   48 1
    37   17   18 ar
    38   17   49 1
    39   18   19 ar
    40   18   50 1
    41   19   51 1
    42   20   21 2
    43   20   22 am
    44   22   23 1
    45   22   52 1
    46   23   24 1
    47   23   53 1
    48   23   54 1
    49   24   29 ar
    50   24   25 ar
    51   25   26 ar
    52   25   55 1
    53   26   27 ar
    54   26   56 1
    55   27   32 1
    56   27   28 ar
    57   28   29 ar
    58   28   30 1
    59   29   57 1
    60   30   31 1
    61   31   32 1
    62   31   58 1
    63   31   59 1
@<TRIPOS>MOLECULE
ZINC46012558
   53    56     0     0     0
SMALL
USER_CHARGES

@<TRIPOS>ATOM
      1 C1          0.3035   -2.0805   -2.3875 C.3       1 <0>        -0.1147
      2 C2          0.9759   -1.8820   -1.0535 C.ar      1 <0>        -0.0620
      3 C3          2.1141   -1.1020   -0.9631 C.ar      1 <0>        -0.1358
      4 C4          2.7341   -0.9174    0.2591 C.ar      1 <0>        -0.0613
      5 C5          2.2180   -1.5123    1.3937 C.ar      1 <0>        -0.1253
      6 C6          1.0751   -2.2962    1.3062 C.ar      1 <0>         0.1686
      7 C7          0.4514   -2.4747    0.0783 C.ar      1 <0>        -0.1523
      8 N1          0.5499   -2.9008    2.4538 N.am      1 <0>        -0.6800
      9 C8          0.6448   -2.2797    3.6461 C.2       1 <0>         0.7071
     10 O1          1.0981   -1.1532    3.7105 O.2       1 <0>        -0.5483
     11 N2          0.2371   -2.9071    4.7671 N.am      1 <0>        -0.6739
     12 C9          0.2291   -2.2222    5.9902 C.ar      1 <0>         0.1905
     13 C10         0.2037   -0.8363    6.0108 C.ar      1 <0>        -0.1195
     14 C11         0.1959   -0.1626    7.2182 C.ar      1 <0>        -0.0967
     15 C12         0.2135   -0.8671    8.4081 C.ar      1 <0>        -0.1195
     16 C13         0.2394   -2.2489    8.3975 C.ar      1 <0>        -0.1099
     17 C14         0.2411   -2.9334    7.1903 C.ar      1 <0>        -0.1242
     18 S1          0.2661   -4.6952    7.1733 S.3       1 <0>        -0.0883
     19 C15         0.2752   -5.1509    8.9291 C.3       1 <0>        -0.0595
     20 C16         0.2968   -6.6522    9.0583 C.2       1 <0>         0.2223
     21 C17         1.4595   -7.2953    9.4293 C.2       1 <0>        -0.2819
     22 C18         1.4522   -8.6932    9.5422 C.2       1 <0>         0.5426
     23 O2          2.4630   -9.2960    9.8687 O.2       1 <0>        -0.5111
     24 N3          0.3095   -9.3591    9.2842 N.am      1 <0>        -0.3901
     25 C19        -0.8115   -8.6784    8.9214 C.2       1 <0>         0.4084
     26 N4         -0.8027   -7.3530    8.8207 N.2       1 <0>        -0.5078
     27 C20        -1.8283   -9.6380    8.7215 C.2       1 <0>        -0.2412
     28 C21        -1.3138  -10.8576    8.9622 C.2       1 <0>         0.1182
     29 O3         -0.0244  -10.7343    9.3053 O.3       1 <0>        -0.0374
     30 C22        -2.0692  -12.1578    8.8628 C.3       1 <0>        -0.0908
     31 C23         3.9743   -0.0665    0.3532 C.3       1 <0>        -0.1150
     32 H1         -0.4372   -1.2959   -2.5414 H         1 <0>         0.0721
     33 H2          1.0498   -2.0362   -3.1808 H         1 <0>         0.0685
     34 H3         -0.1883   -3.0531   -2.4054 H         1 <0>         0.0665
     35 H4          2.5200   -0.6363   -1.8489 H         1 <0>         0.1233
     36 H5          2.7030   -1.3684    2.3479 H         1 <0>         0.1353
     37 H6         -0.4403   -3.0799    0.0078 H         1 <0>         0.1245
     38 H7          0.1177   -3.7669    2.3911 H         1 <0>         0.4092
     39 H8         -0.0508   -3.8325    4.7275 H         1 <0>         0.4098
     40 H9          0.1902   -0.2826    5.0836 H         1 <0>         0.1599
     41 H10         0.1764    0.9171    7.2321 H         1 <0>         0.1303
     42 H11         0.2073   -0.3359    9.3484 H         1 <0>         0.1283
     43 H12         0.2534   -2.7960    9.3286 H         1 <0>         0.1271
     44 H13         1.1601   -4.7322    9.4086 H         1 <0>         0.1173
     45 H14        -0.6197   -4.7575    9.4112 H         1 <0>         0.1201
     46 H15         2.3593   -6.7324    9.6290 H         1 <0>         0.1768
     47 H16        -2.8458   -9.4284    8.4261 H         1 <0>         0.1924
     48 H17        -1.9815  -12.5525    7.8506 H         1 <0>         0.1096
     49 H18        -1.6525  -12.8751    9.5699 H         1 <0>         0.0967
     50 H19        -3.1201  -11.9862    9.0961 H         1 <0>         0.1133
     51 H20         3.6913    0.9683    0.5458 H         1 <0>         0.0731
     52 H21         4.6026   -0.4288    1.1669 H         1 <0>         0.0669
     53 H22         4.5261   -0.1237   -0.5851 H         1 <0>         0.0677
@<TRIPOS>BOND
     1    1    2 1
     2    1   32 1
     3    1   33 1
     4    1   34 1
     5    2    7 ar
     6    2    3 ar
     7    3    4 ar
     8    3   35 1
     9    4    5 ar
    10    4   31 1
    11    5    6 ar
    12    5   36 1
    13    6    7 ar
    14    6    8 1
    15    7   37 1
    16    8    9 am
    17    8   38 1
    18    9   10 2
    19    9   11 am
    20   11   12 1
    21   11   39 1
    22   12   17 ar
    23   12   13 ar
    24   13   14 ar
    25   13   40 1
    26   14   15 ar
    27   14   41 1
    28   15   16 ar
    29   15   42 1
    30   16   17 ar
    31   16   43 1
    32   17   18 1
    33   18   19 1
    34   19   20 1
    35   19   44 1
    36   19   45 1
    37   20   26 1
    38   20   21 2
    39   21   22 1
    40   21   46 1
    41   22   23 2
    42   22   24 am
    43   24   29 1
    44   24   25 1
    45   25   26 2
    46   25   27 1
    47   27   28 2
    48   27   47 1
    49   28   29 1
    50   28   30 1
    51   30   48 1
    52   30   49 1
    53   30   50 1
    54   31   51 1
    55   31   52 1
    56   31   53 1
@<TRIPOS>MOLECULE
ZINC08341833
   47    50     0     0     0
SMALL
USER_CHARGES
N-[(7-ethyl-1H-indol-3-yl)methyleneamino]-3-methyl-4-oxo-phthalazine-1-carboxamide
@<TRIPOS>ATOM
      1 C1          9.4979   -9.1847   -1.5803 C.3       1 <0>        -0.1480
      2 C2          9.2988   -8.7136   -0.1383 C.3       1 <0>        -0.0830
      3 C3          8.3752   -7.5230   -0.1218 C.ar      1 <0>        -0.0939
      4 C4          8.8949   -6.2470   -0.1194 C.ar      1 <0>        -0.0971
      5 C5          8.0560   -5.1419   -0.1047 C.ar      1 <0>        -0.1396
      6 C6          6.6885   -5.3069   -0.0923 C.ar      1 <0>        -0.0646
      7 C7          6.1486   -6.5912   -0.1010 C.ar      1 <0>        -0.0754
      8 C8          6.9969   -7.7111   -0.1094 C.ar      1 <0>         0.0930
      9 N1          6.1981   -8.8349   -0.1086 N.pl3     1 <0>        -0.5819
     10 H1          6.5255   -9.7479   -0.1176 H         1 <0>         0.4195
     11 C9          4.8825   -8.4790   -0.0940 C.2       1 <0>         0.1039
     12 C10         4.7742   -7.1227   -0.0847 C.2       1 <0>        -0.1516
     13 C11         3.5284   -6.3398   -0.0681 C.2       1 <0>         0.1578
     14 N2          3.5771   -5.0414   -0.0611 N.2       1 <0>        -0.2393
     15 N3          2.3909   -4.2960   -0.0453 N.am      1 <0>        -0.5686
     16 C12         2.4414   -2.9492   -0.0381 C.2       1 <0>         0.6170
     17 O1          3.5170   -2.3808   -0.0453 O.2       1 <0>        -0.4870
     18 C13         1.1920   -2.1640   -0.0215 C.2       1 <0>         0.0601
     19 C14         1.2370   -0.6928   -0.0135 C.ar      1 <0>        -0.0342
     20 C15         2.4284    0.0244   -0.0210 C.ar      1 <0>        -0.0948
     21 C16         2.3886    1.4027   -0.0132 C.ar      1 <0>        -0.0849
     22 C17         1.1757    2.0789    0.0020 C.ar      1 <0>        -0.1131
     23 C18        -0.0168    1.3871    0.0097 C.ar      1 <0>        -0.0537
     24 C19         0.0021   -0.0041    0.0020 C.ar      1 <0>        -0.1397
     25 C20        -1.2207   -0.8191    0.0088 C.2       1 <0>         0.5152
     26 O2         -2.3190   -0.2941    0.0225 O.2       1 <0>        -0.4940
     27 N4         -1.0978   -2.1623    0.0000 N.am      1 <0>        -0.3623
     28 N5          0.0286   -2.7686   -0.0140 N.2       1 <0>        -0.1973
     29 C21        -2.3199   -2.9703    0.0068 C.3       1 <0>         0.0831
     30 H2          9.9345   -8.3779   -2.1690 H         1 <0>         0.0594
     31 H3         10.1660  -10.0459   -1.5922 H         1 <0>         0.0582
     32 H4          8.5351   -9.4658   -2.0069 H         1 <0>         0.0506
     33 H5         10.2616   -8.4325    0.2883 H         1 <0>         0.0761
     34 H6          8.8622   -9.5204    0.4505 H         1 <0>         0.0627
     35 H7          9.9655   -6.1056   -0.1287 H         1 <0>         0.1246
     36 H8          8.4773   -4.1474   -0.1034 H         1 <0>         0.1243
     37 H9          6.0379   -4.4449   -0.0805 H         1 <0>         0.1371
     38 H10         4.0518   -9.1691   -0.0903 H         1 <0>         0.1804
     39 H11         2.5735   -6.8445   -0.0617 H         1 <0>         0.1213
     40 H12         1.5333   -4.7492   -0.0396 H         1 <0>         0.3923
     41 H13         3.3761   -0.4933   -0.0324 H         1 <0>         0.1717
     42 H14         3.3118    1.9631   -0.0190 H         1 <0>         0.1382
     43 H15         1.1665    3.1589    0.0075 H         1 <0>         0.1377
     44 H16        -0.9563    1.9197    0.0170 H         1 <0>         0.1431
     45 H17        -2.0563   -4.0279   -0.0017 H         1 <0>         0.1018
     46 H18        -2.8980   -2.7471    0.9036 H         1 <0>         0.0873
     47 H19        -2.9146   -2.7369   -0.8763 H         1 <0>         0.0873
@<TRIPOS>BOND
     1    1    2 1
     2    1   30 1
     3    1   31 1
     4    1   32 1
     5    2    3 1
     6    2   33 1
     7    2   34 1
     8    3    8 ar
     9    3    4 ar
    10    4    5 ar
    11    4   35 1
    12    5    6 ar
    13    5   36 1
    14    6    7 ar
    15    6   37 1
    16    7   12 1
    17    7    8 ar
    18    8    9 1
    19    9   10 1
    20    9   11 1
    21   11   12 2
    22   11   38 1
    23   12   13 1
    24   13   14 2
    25   13   39 1
    26   14   15 1
    27   15   16 am
    28   15   40 1
    29   16   17 2
    30   16   18 1
    31   18   28 2
    32   18   19 1
    33   19   24 ar
    34   19   20 ar
    35   20   21 ar
    36   20   41 1
    37   21   22 ar
    38   21   42 1
    39   22   23 ar
    40   22   43 1
    41   23   24 ar
    42   23   44 1
    43   24   25 1
    44   25   26 2
    45   25   27 am
    46   27   28 1
    47   27   29 1
    48   29   45 1
    49   29   46 1
    50   29   47 1
@<TRIPOS>MOLECULE
ZINC09110994
   46    49     0     0     0
SMALL
USER_CHARGES

@<TRIPOS>ATOM
      1 C1         -0.0173    1.4248    0.0099 C.3       1 <0>         0.0339
      2 O1          0.0021   -0.0041    0.0020 O.3       1 <0>        -0.3496
      3 C2          0.6205   -0.6132    1.0327 C.2       1 <0>         0.5053
      4 O2          1.1294    0.0507    1.9139 O.2       1 <0>        -0.4999
      5 C3          0.6798   -2.0861    1.0911 C.ar      1 <0>        -0.1146
      6 C4          0.0990   -2.8499    0.0739 C.ar      1 <0>        -0.0639
      7 C5          0.1537   -4.2136    0.1277 C.ar      1 <0>        -0.1035
      8 C6          0.7907   -4.8461    1.2005 C.ar      1 <0>        -0.0160
      9 C7          1.3716   -4.0818    2.2179 C.ar      1 <0>        -0.0916
     10 C8          1.3216   -2.7181    2.1607 C.ar      1 <0>        -0.0557
     11 C9          0.8494   -6.3167    1.2590 C.2       1 <0>         0.1014
     12 N1          1.4408   -6.9038    2.2551 N.2       1 <0>        -0.2144
     13 N2          1.4967   -8.3026    2.3108 N.am      1 <0>        -0.5718
     14 C10         2.1104   -8.9119    3.3444 C.2       1 <0>         0.6272
     15 O3          2.6157   -8.2476    4.2287 O.2       1 <0>        -0.4842
     16 C11         2.1693  -10.3864    3.4031 C.2       1 <0>        -0.0003
     17 C12         2.7620  -11.1541    4.4073 C.2       1 <0>        -0.1249
     18 C13         2.5587  -12.4656    4.0419 C.2       1 <0>         0.0532
     19 N3          1.8948  -12.4509    2.8699 N.pl3     1 <0>        -0.3540
     20 H1          1.6265  -13.2377    2.3700 H         1 <0>         0.4499
     21 N4          1.6646  -11.2308    2.5157 N.2       1 <0>        -0.2576
     22 C14         3.0316  -13.5632    4.9073 C.ar      1 <0>        -0.0250
     23 C15         3.0888  -14.8776    4.4635 C.ar      1 <0>        -0.1059
     24 C16         3.5720  -15.8617    5.3042 C.ar      1 <0>        -0.1186
     25 C17         3.9977  -15.5317    6.5787 C.ar      1 <0>        -0.1062
     26 C18         3.9289  -14.2260    7.0279 C.ar      1 <0>        -0.1136
     27 C19         3.4323  -13.2320    6.2066 C.ar      1 <0>        -0.0532
     28 C20         3.2809  -11.8314    6.7325 C.3       1 <0>        -0.0831
     29 C21         3.5034  -10.7712    5.6548 C.3       1 <0>        -0.0478
     30 H2          1.0053    1.8021    0.0021 H         1 <0>         0.0625
     31 H3         -0.5445    1.7859   -0.8732 H         1 <0>         0.1049
     32 H4         -0.5275    1.7763    0.9067 H         1 <0>         0.0625
     33 H5         -0.3931   -2.3615   -0.7542 H         1 <0>         0.1443
     34 H6         -0.2952   -4.8035   -0.6578 H         1 <0>         0.1396
     35 H7          1.8635   -4.5699    3.0463 H         1 <0>         0.1470
     36 H8          1.7739   -2.1278    2.9440 H         1 <0>         0.1429
     37 H9          0.4006   -6.9068    0.4736 H         1 <0>         0.1280
     38 H10         1.0936   -8.8326    1.6054 H         1 <0>         0.3957
     39 H11         2.7571  -15.1293    3.4670 H         1 <0>         0.1214
     40 H12         3.6171  -16.8869    4.9673 H         1 <0>         0.1287
     41 H13         4.3870  -16.3013    7.2288 H         1 <0>         0.1274
     42 H14         4.2651  -13.9819    8.0247 H         1 <0>         0.1306
     43 H15         2.2764  -11.7147    7.1393 H         1 <0>         0.0825
     44 H16         4.0034  -11.6761    7.5338 H         1 <0>         0.0868
     45 H17         4.5683  -10.6955    5.4349 H         1 <0>         0.0818
     46 H18         3.1384   -9.8084    6.0125 H         1 <0>         0.0982
@<TRIPOS>BOND
     1    1    2 1
     2    1   30 1
     3    1   31 1
     4    1   32 1
     5    2    3 1
     6    3    4 2
     7    3    5 1
     8    5   10 ar
     9    5    6 ar
    10    6    7 ar
    11    6   33 1
    12    7    8 ar
    13    7   34 1
    14    8    9 ar
    15    8   11 1
    16    9   10 ar
    17    9   35 1
    18   10   36 1
    19   11   12 2
    20   11   37 1
    21   12   13 1
    22   13   14 am
    23   13   38 1
    24   14   15 2
    25   14   16 1
    26   16   21 2
    27   16   17 1
    28   17   29 1
    29   17   18 2
    30   18   19 1
    31   18   22 1
    32   19   20 1
    33   19   21 1
    34   22   27 ar
    35   22   23 ar
    36   23   24 ar
    37   23   39 1
    38   24   25 ar
    39   24   40 1
    40   25   26 ar
    41   25   41 1
    42   26   27 ar
    43   26   42 1
    44   27   28 1
    45   28   29 1
    46   28   43 1
    47   28   44 1
    48   29   45 1
    49   29   46 1
@<TRIPOS>MOLECULE
ZINC39579413
   47    50     0     0     0
SMALL
USER_CHARGES

@<TRIPOS>ATOM
      1 C1         -0.0173    1.4248    0.0099 C.3       1 <0>         0.0242
      2 O1          0.0021   -0.0041    0.0020 O.3       1 <0>        -0.3052
      3 C2         -1.2012   -0.6379    0.0101 C.ar      1 <0>         0.0968
      4 C3         -2.3739    0.1012    0.0195 C.ar      1 <0>        -0.1795
      5 C4         -3.6021   -0.5368    0.0283 C.ar      1 <0>        -0.0926
      6 C5         -3.6711   -1.9141    0.0276 C.ar      1 <0>        -0.1113
      7 C6         -2.4973   -2.6722    0.0177 C.ar      1 <0>        -0.0515
      8 C7         -1.2550   -2.0264    0.0032 C.ar      1 <0>         0.1173
      9 O2         -0.1073   -2.7541   -0.0117 O.3       1 <0>        -0.4604
     10 C8         -2.5666   -4.1445    0.0171 C.2       1 <0>         0.1092
     11 N1         -1.4744   -4.8456    0.0078 N.2       1 <0>        -0.1976
     12 N2         -1.5403   -6.2450    0.0072 N.am      1 <0>        -0.5824
     13 C9         -0.4061   -6.9730   -0.0024 C.2       1 <0>         0.5721
     14 O3          0.6718   -6.4165   -0.0105 O.2       1 <0>        -0.4635
     15 C10        -0.4770   -8.4784   -0.0030 C.3       1 <0>        -0.0570
     16 H1         -1.2624   -8.8257    0.6683 H         1 <0>         0.1756
     17 C11        -0.7028   -9.0038   -1.4095 C.2       1 <0>        -0.1498
     18 C12         0.3905   -9.7524   -1.6537 C.2       1 <0>         0.0271
     19 N3          1.2252   -9.7364   -0.5814 N.2       1 <0>        -0.1439
     20 N4          0.8224   -9.0601    0.3722 N.2       1 <0>        -0.1114
     21 C13         0.6465  -10.4905   -2.9146 C.ar      1 <0>        -0.0388
     22 C14        -0.2896  -10.4289   -3.9598 C.ar      1 <0>        -0.0993
     23 C15        -0.0791  -11.0957   -5.1239 C.ar      1 <0>        -0.1027
     24 C16         1.0890  -11.8604   -5.2946 C.ar      1 <0>        -0.0429
     25 C17         1.3304  -12.5590   -6.4896 C.ar      1 <0>        -0.1106
     26 C18         2.4705  -13.2904   -6.6250 C.ar      1 <0>        -0.1081
     27 C19         3.4062  -13.3589   -5.5944 C.ar      1 <0>        -0.1167
     28 C20         3.2068  -12.6962   -4.4226 C.ar      1 <0>        -0.0988
     29 C21         2.0411  -11.9295   -4.2463 C.ar      1 <0>        -0.0564
     30 C22         1.8069  -11.2287   -3.0531 C.ar      1 <0>        -0.0598
     31 H2          1.0053    1.8021    0.0021 H         1 <0>         0.1031
     32 H3         -0.5445    1.7859   -0.8732 H         1 <0>         0.0569
     33 H4         -0.5275    1.7763    0.9067 H         1 <0>         0.0567
     34 H5         -2.3289    1.1803    0.0205 H         1 <0>         0.1353
     35 H6         -4.5108    0.0468    0.0360 H         1 <0>         0.1344
     36 H7         -4.6322   -2.4067    0.0352 H         1 <0>         0.1352
     37 H8          0.2333   -2.9694    0.8673 H         1 <0>         0.3896
     38 H9         -3.5263   -4.6399    0.0243 H         1 <0>         0.1270
     39 H10        -2.4022   -6.6900    0.0137 H         1 <0>         0.3865
     40 H11        -1.5438   -8.8206   -2.0619 H         1 <0>         0.1816
     41 H12        -1.1889   -9.8437   -3.8360 H         1 <0>         0.1246
     42 H13        -0.8086  -11.0391   -5.9183 H         1 <0>         0.1330
     43 H14         0.6144  -12.5163   -7.2970 H         1 <0>         0.1290
     44 H15         2.6525  -13.8260   -7.5450 H         1 <0>         0.1255
     45 H16         4.3024  -13.9467   -5.7275 H         1 <0>         0.1263
     46 H17         3.9400  -12.7587   -3.6322 H         1 <0>         0.1314
     47 H18         2.5257  -11.2689   -2.2480 H         1 <0>         0.1418
@<TRIPOS>BOND
     1    1    2 1
     2    1   31 1
     3    1   32 1
     4    1   33 1
     5    2    3 1
     6    3    8 ar
     7    3    4 ar
     8    4    5 ar
     9    4   34 1
    10    5    6 ar
    11    5   35 1
    12    6    7 ar
    13    6   36 1
    14    7    8 ar
    15    7   10 1
    16    8    9 1
    17    9   37 1
    18   10   11 2
    19   10   38 1
    20   11   12 1
    21   12   13 am
    22   12   39 1
    23   13   14 2
    24   13   15 1
    25   15   16 1
    26   15   20 1
    27   15   17 1
    28   17   18 2
    29   17   40 1
    30   18   19 1
    31   18   21 1
    32   19   20 2
    33   21   30 ar
    34   21   22 ar
    35   22   23 ar
    36   22   41 1
    37   23   24 ar
    38   23   42 1
    39   24   29 ar
    40   24   25 ar
    41   25   26 ar
    42   25   43 1
    43   26   27 ar
    44   26   44 1
    45   27   28 ar
    46   27   45 1
    47   28   29 ar
    48   28   46 1
    49   29   30 ar
    50   30   47 1
@<TRIPOS>MOLECULE
ZINC57343813
   40    43     0     0     0
SMALL
USER_CHARGES

@<TRIPOS>ATOM
      1 C1          1.0268   -0.6034   -0.9727 C.3       1 <0>         0.0246
      2 O1          0.0052   -0.0064   -0.1714 O.3       1 <0>        -0.3077
      3 C2         -1.1990   -0.6381   -0.1347 C.ar      1 <0>         0.0916
      4 C3         -1.3889   -1.8101   -0.8507 C.ar      1 <0>        -0.1624
      5 C4         -2.6111   -2.4526   -0.8139 C.ar      1 <0>        -0.0751
      6 C5         -3.6509   -1.9252   -0.0595 C.ar      1 <0>         0.1427
      7 C6         -3.4616   -0.7515    0.6579 C.ar      1 <0>        -0.1339
      8 C7         -2.2362   -0.1119    0.6247 C.ar      1 <0>         0.0917
      9 F1         -2.0494    1.0274    1.3264 F         1 <0>        -0.1255
     10 N1         -4.8900   -2.5765   -0.0227 N.pl3     1 <0>        -0.6241
     11 C8         -4.9481   -3.9462   -0.0995 C.2       1 <0>         0.6629
     12 N2         -3.8363   -4.6395   -0.1014 N.2       1 <0>        -0.5574
     13 C9         -3.8332   -5.9844   -0.1749 C.2       1 <0>         0.2471
     14 C10        -5.0093   -6.6780   -0.2511 C.2       1 <0>        -0.2227
     15 C11        -6.2253   -5.9523   -0.2508 C.2       1 <0>         0.3384
     16 N3         -6.1715   -4.5680   -0.1676 N.am      1 <0>        -0.5272
     17 C12        -7.4334   -4.0984   -0.1773 C.2       1 <0>         0.6541
     18 O2         -7.7630   -2.9267   -0.1227 O.2       1 <0>        -0.5371
     19 N4         -8.2686   -5.1557   -0.2588 N.am      1 <0>        -0.5246
     20 H1         -9.2376   -5.1193   -0.2840 H         1 <0>         0.4654
     21 N5         -7.4822   -6.3155   -0.3122 N.2       1 <0>        -0.2760
     22 C13        -2.5460   -6.7177   -0.1738 C.ar      1 <0>        -0.0586
     23 C14        -2.5250   -8.0958   -0.3877 C.ar      1 <0>        -0.0879
     24 C15        -1.3229   -8.7732   -0.3859 C.ar      1 <0>        -0.1240
     25 C16        -0.1400   -8.0882   -0.1726 C.ar      1 <0>        -0.0984
     26 C17        -0.1544   -6.7213    0.0406 C.ar      1 <0>        -0.1278
     27 C18        -1.3496   -6.0319    0.0354 C.ar      1 <0>        -0.0717
     28 H2          1.9332   -0.0009   -0.9139 H         1 <0>         0.1048
     29 H3          1.2345   -1.6089   -0.6068 H         1 <0>         0.0599
     30 H4          0.6918   -0.6557   -2.0087 H         1 <0>         0.0593
     31 H5         -0.5809   -2.2207   -1.4379 H         1 <0>         0.1459
     32 H6         -2.7582   -3.3653   -1.3722 H         1 <0>         0.1509
     33 H7         -4.2698   -0.3407    1.2449 H         1 <0>         0.1485
     34 H8         -5.7072   -2.0600    0.0572 H         1 <0>         0.4359
     35 H9         -5.0107   -7.7564   -0.3105 H         1 <0>         0.1678
     36 H10        -3.4479   -8.6317   -0.5540 H         1 <0>         0.1320
     37 H11        -1.3055   -9.8403   -0.5511 H         1 <0>         0.1295
     38 H12         0.7984   -8.6227   -0.1721 H         1 <0>         0.1259
     39 H13         0.7723   -6.1920    0.2069 H         1 <0>         0.1271
     40 H14        -1.3592   -4.9642    0.1976 H         1 <0>         0.1361
@<TRIPOS>BOND
     1    1    2 1
     2    1   28 1
     3    1   29 1
     4    1   30 1
     5    2    3 1
     6    3    8 ar
     7    3    4 ar
     8    4    5 ar
     9    4   31 1
    10    5    6 ar
    11    5   32 1
    12    6    7 ar
    13    6   10 1
    14    7    8 ar
    15    7   33 1
    16    8    9 1
    17   10   11 1
    18   10   34 1
    19   11   16 1
    20   11   12 2
    21   12   13 1
    22   13   14 2
    23   13   22 1
    24   14   15 1
    25   14   35 1
    26   15   21 2
    27   15   16 1
    28   16   17 am
    29   17   18 2
    30   17   19 am
    31   19   20 1
    32   19   21 1
    33   22   27 ar
    34   22   23 ar
    35   23   24 ar
    36   23   36 1
    37   24   25 ar
    38   24   37 1
    39   25   26 ar
    40   25   38 1
    41   26   27 ar
    42   26   39 1
    43   27   40 1
@<TRIPOS>MOLECULE
ZINC65569901
   50    51     0     0     0
SMALL
USER_CHARGES

@<TRIPOS>ATOM
      1 C1         -0.0282    1.4290    0.0408 C.3       1 <0>        -0.1861
      2 C2          0.0258   -0.1000    0.0538 C.3       1 <0>         0.1349
      3 C3          0.7865   -0.5730    1.2942 C.3       1 <0>        -0.1861
      4 C4         -1.3976   -0.6603    0.0842 C.3       1 <0>        -0.1413
      5 O1          0.6950   -0.5631   -1.1208 O.3       1 <0>        -0.3592
      6 C5          1.9664   -0.1577   -1.2998 C.2       1 <0>         0.6508
      7 O2          2.4933    0.5693   -0.4811 O.2       1 <0>        -0.5638
      8 N1          2.6546   -0.5584   -2.3871 N.am      1 <0>        -0.7083
      9 C6          4.0380   -0.1174   -2.5819 C.3       1 <0>         0.1604
     10 C7          4.9825   -1.0497   -1.8197 C.3       1 <0>        -0.1465
     11 C8          6.4249   -0.5653   -1.9974 C.3       1 <0>         0.1109
     12 N2          6.7137   -0.4565   -3.4338 N.am      1 <0>        -0.5761
     13 C9          5.8144    0.3431   -4.2767 C.3       1 <0>         0.0482
     14 C10         4.3788   -0.1515   -4.0735 C.3       1 <0>        -0.1401
     15 C11         7.7836   -1.0781   -3.9681 C.2       1 <0>         0.5121
     16 O3          8.5673   -1.6629   -3.2493 O.2       1 <0>        -0.5106
     17 C12         8.0048   -1.0472   -5.4448 C.2       1 <0>         0.5196
     18 O4          7.2859   -0.3717   -6.1522 O.2       1 <0>        -0.4825
     19 N3          9.0026   -1.7693   -5.9920 N.am      1 <0>        -0.6342
     20 C13         9.2861   -1.6489   -7.3559 C.ar      1 <0>         0.1391
     21 C14         8.9460   -0.4874   -8.0377 C.ar      1 <0>        -0.1138
     22 C15         9.2267   -0.3702   -9.3849 C.ar      1 <0>        -0.0740
     23 C16         9.8461   -1.4075  -10.0578 C.ar      1 <0>        -0.1382
     24 C17        10.1871   -2.5681   -9.3839 C.ar      1 <0>         0.0929
     25 C18         9.9140   -2.6894   -8.0315 C.ar      1 <0>         0.0396
     26 F1         10.2516   -3.8188   -7.3714 F         1 <0>        -0.1231
     27 F2         10.7917   -3.5797  -10.0444 F         1 <0>        -0.1217
     28 H1          0.9859    1.8281    0.0192 H         1 <0>         0.0874
     29 H2         -0.5702    1.7659   -0.8428 H         1 <0>         0.0592
     30 H3         -0.5386    1.7822    0.9368 H         1 <0>         0.0707
     31 H4          0.2761   -0.2198    2.1901 H         1 <0>         0.0707
     32 H5          0.8250   -1.6622    1.3034 H         1 <0>         0.0590
     33 H6          1.8006   -0.1738    1.2726 H         1 <0>         0.0874
     34 H7         -1.9396   -0.3234   -0.7995 H         1 <0>         0.0667
     35 H8         -1.3592   -1.7496    0.0934 H         1 <0>         0.0666
     36 H9         -1.9081   -0.3071    0.9801 H         1 <0>         0.0813
     37 H10         2.2340   -1.1388   -3.0407 H         1 <0>         0.4065
     38 H11         4.1511    0.8998   -2.2068 H         1 <0>         0.0965
     39 H12         4.7242   -1.0428   -0.7608 H         1 <0>         0.0878
     40 H13         4.8881   -2.0625   -2.2112 H         1 <0>         0.0727
     41 H14         6.5434    0.4103   -1.5259 H         1 <0>         0.0823
     42 H15         7.1093   -1.2799   -1.5401 H         1 <0>         0.1016
     43 H16         5.8831    1.3928   -3.9912 H         1 <0>         0.0770
     44 H17         6.0959    0.2279   -5.3234 H         1 <0>         0.1653
     45 H18         4.2900   -1.1728   -4.4438 H         1 <0>         0.0753
     46 H19         3.6908    0.4947   -4.6188 H         1 <0>         0.0894
     47 H20         9.5241   -2.3725   -5.4396 H         1 <0>         0.4303
     48 H21         8.4619    0.3239   -7.5143 H         1 <0>         0.1632
     49 H22         8.9616    0.5332   -9.9140 H         1 <0>         0.1494
     50 H23        10.0640   -1.3123  -11.1113 H         1 <0>         0.1510
@<TRIPOS>BOND
     1    1    2 1
     2    1   28 1
     3    1   29 1
     4    1   30 1
     5    2    3 1
     6    2    4 1
     7    2    5 1
     8    3   31 1
     9    3   32 1
    10    3   33 1
    11    4   34 1
    12    4   35 1
    13    4   36 1
    14    5    6 1
    15    6    7 2
    16    6    8 am
    17    8    9 1
    18    8   37 1
    19    9   14 1
    20    9   10 1
    21    9   38 1
    22   10   11 1
    23   10   39 1
    24   10   40 1
    25   11   12 1
    26   11   41 1
    27   11   42 1
    28   12   13 1
    29   12   15 am
    30   13   14 1
    31   13   43 1
    32   13   44 1
    33   14   45 1
    34   14   46 1
    35   15   16 2
    36   15   17 1
    37   17   18 2
    38   17   19 am
    39   19   20 1
    40   19   47 1
    41   20   25 ar
    42   20   21 ar
    43   21   22 ar
    44   21   48 1
    45   22   23 ar
    46   22   49 1
    47   23   24 ar
    48   23   50 1
    49   24   25 ar
    50   24   27 1
    51   25   26 1
@<TRIPOS>MOLECULE
ZINC12751157
   59    61     0     0     0
SMALL
USER_CHARGES
(2S)-4-[[(R)-(4-isobutylphenyl)-(2-thienyl)methyl]amino]-2-methyl-4-oxo-2-phenyl-butanoic acid
@<TRIPOS>ATOM
      1 C1        -12.4512    5.0354    0.0355 C.3       1 <0>        -0.1517
      2 C2        -12.8240    4.3586   -1.2850 C.3       1 <0>        -0.0911
      3 C3        -13.9778    5.1202   -1.9405 C.3       1 <0>        -0.1477
      4 C4        -11.6132    4.3636   -2.2203 C.3       1 <0>        -0.0763
      5 C5        -10.5193    3.5113   -1.6304 C.ar      1 <0>        -0.0781
      6 C6        -10.4549    2.1636   -1.9311 C.ar      1 <0>        -0.1149
      7 C7         -9.4518    1.3817   -1.3897 C.ar      1 <0>        -0.0980
      8 C8         -8.5130    1.9474   -0.5474 C.ar      1 <0>        -0.0864
      9 C9         -8.5804    3.2941   -0.2425 C.ar      1 <0>        -0.1037
     10 C10        -9.5804    4.0771   -0.7881 C.ar      1 <0>        -0.1110
     11 C11        -7.4196    1.0949    0.0433 C.3       1 <0>         0.2747
     12 H1         -7.3038    0.1890   -0.5517 H         1 <0>         0.1138
     13 C12        -7.7811    0.7238    1.4584 C.2       1 <0>        -0.1393
     14 C13        -8.3129   -0.4309    1.9288 C.2       1 <0>        -0.1498
     15 C14        -8.5612   -0.5517    3.2832 C.2       1 <0>        -0.1527
     16 C15        -8.2755    0.4921    4.0995 C.2       1 <0>        -0.1822
     17 S1         -7.6274    1.6938    2.9493 S.3       1 <0>         0.0530
     18 N1         -6.1610    1.8446    0.0413 N.am      1 <0>        -0.7361
     19 C16        -4.9848    1.1867    0.0322 C.2       1 <0>         0.5139
     20 O1         -4.9683   -0.0260    0.0255 O.2       1 <0>        -0.4897
     21 C17        -3.6900    1.9578    0.0302 C.3       1 <0>        -0.1133
     22 C18        -2.5137    0.9795    0.0193 C.3       1 <0>        -0.0599
     23 C19        -2.5888    0.1056   -1.2343 C.3       1 <0>        -0.1256
     24 C20        -1.2190    1.7506    0.0173 C.ar      1 <0>        -0.0222
     25 C21        -0.0126    1.0758    0.0080 C.ar      1 <0>        -0.1102
     26 C22         1.1750    1.7832    0.0004 C.ar      1 <0>        -0.1197
     27 C23         1.1563    3.1654    0.0076 C.ar      1 <0>        -0.1425
     28 C24        -0.0501    3.8402    0.0223 C.ar      1 <0>        -0.1225
     29 C25        -1.2377    3.1328    0.0299 C.ar      1 <0>        -0.1276
     30 C26        -2.5759    0.1054    1.2454 C.2       1 <0>         0.4884
     31 O2         -2.6706   -1.0934    1.1285 O.co2     1 <0>        -0.6176
     32 H2        -12.1450    6.0637   -0.1569 H         1 <0>         0.0531
     33 H3        -13.3138    5.0319    0.7018 H         1 <0>         0.0518
     34 H4        -11.6292    4.4929    0.5025 H         1 <0>         0.0616
     35 H5        -13.1302    3.3304   -1.0925 H         1 <0>         0.0705
     36 H6        -14.2434    4.6380   -2.8812 H         1 <0>         0.0536
     37 H7        -14.8405    5.1166   -1.2742 H         1 <0>         0.0544
     38 H8        -13.6716    6.1484   -2.1329 H         1 <0>         0.0543
     39 H9        -11.2523    5.3849   -2.3420 H         1 <0>         0.0716
     40 H10       -11.9026    3.9623   -3.1915 H         1 <0>         0.0710
     41 H11       -11.1886    1.7214   -2.5889 H         1 <0>         0.1217
     42 H12        -9.4018    0.3287   -1.6244 H         1 <0>         0.1247
     43 H13        -7.8495    3.7352    0.4190 H         1 <0>         0.1209
     44 H14        -9.6309    5.1299   -0.5528 H         1 <0>         0.1224
     45 H15        -8.5366   -1.2454    1.2558 H         1 <0>         0.1298
     46 H16        -8.9808   -1.4623    3.6844 H         1 <0>         0.1301
     47 H17        -8.4063    0.5752    5.1683 H         1 <0>         0.1821
     48 H18        -6.1741    2.8145    0.0467 H         1 <0>         0.3962
     49 H19        -3.6365    2.5804    0.9233 H         1 <0>         0.0998
     50 H20        -3.6450    2.5900   -0.8566 H         1 <0>         0.0825
     51 H21        -1.7508   -0.5913   -1.2421 H         1 <0>         0.0510
     52 H22        -3.5252   -0.4521   -1.2329 H         1 <0>         0.0839
     53 H23        -2.5438    0.7378   -2.1211 H         1 <0>         0.0300
     54 H24         0.0021   -0.0041    0.0020 H         1 <0>         0.1187
     55 H25         2.1175    1.2560   -0.0115 H         1 <0>         0.1147
     56 H26         2.0841    3.7181    0.0014 H         1 <0>         0.1124
     57 H27        -0.0647    4.9201    0.0276 H         1 <0>         0.1139
     58 H28        -2.1802    3.6600    0.0410 H         1 <0>         0.1191
     59 O3         -2.5262    0.6588    2.4673 O.co2     1 <0>        -0.7697
@<TRIPOS>BOND
     1    1    2 1
     2    1   32 1
     3    1   33 1
     4    1   34 1
     5    2    3 1
     6    2    4 1
     7    2   35 1
     8    3   36 1
     9    3   37 1
    10    3   38 1
    11    4    5 1
    12    4   39 1
    13    4   40 1
    14    5   10 ar
    15    5    6 ar
    16    6    7 ar
    17    6   41 1
    18    7    8 ar
    19    7   42 1
    20    8    9 ar
    21    8   11 1
    22    9   10 ar
    23    9   43 1
    24   10   44 1
    25   11   12 1
    26   11   13 1
    27   11   18 1
    28   13   17 1
    29   13   14 2
    30   14   15 1
    31   14   45 1
    32   15   16 2
    33   15   46 1
    34   16   17 1
    35   16   47 1
    36   18   19 am
    37   18   48 1
    38   19   20 2
    39   19   21 1
    40   21   22 1
    41   21   49 1
    42   21   50 1
    43   22   23 1
    44   22   24 1
    45   22   30 1
    46   23   51 1
    47   23   52 1
    48   23   53 1
    49   24   29 ar
    50   24   25 ar
    51   25   26 ar
    52   25   54 1
    53   26   27 ar
    54   26   55 1
    55   27   28 ar
    56   27   56 1
    57   28   29 ar
    58   28   57 1
    59   29   58 1
    60   30   31 2
    61   30   59 1
@<TRIPOS>MOLECULE
ZINC13315678
   42    44     0     0     0
SMALL
USER_CHARGES
5-[[(R)-(4-ethylphenyl)-(2-thienyl)methyl]sulfamoyl]thiophene-3-carboxylic acid
@<TRIPOS>ATOM
      1 C1         -6.2931    4.6068    5.3035 C.3       1 <0>        -0.1456
      2 C2         -5.6648    5.1904    4.0364 C.3       1 <0>        -0.0873
      3 C3         -4.7544    4.1661    3.4095 C.ar      1 <0>        -0.0764
      4 C4         -5.2531    3.2779    2.4750 C.ar      1 <0>        -0.1131
      5 C5         -4.4181    2.3380    1.9003 C.ar      1 <0>        -0.0963
      6 C6         -3.0844    2.2863    2.2601 C.ar      1 <0>        -0.0931
      7 C7         -2.5869    3.1710    3.1986 C.ar      1 <0>        -0.0982
      8 C8         -3.4207    4.1143    3.7694 C.ar      1 <0>        -0.1138
      9 C9         -2.1742    1.2613    1.6340 C.3       1 <0>         0.2858
     10 H1         -2.6157    0.9033    0.7039 H         1 <0>         0.1147
     11 C10        -1.9931    0.1042    2.5822 C.2       1 <0>        -0.1460
     12 C11        -2.6028   -1.1064    2.5779 C.2       1 <0>        -0.1430
     13 C12        -2.2760   -2.0251    3.5576 C.2       1 <0>        -0.1514
     14 C13        -1.3555   -1.6882    4.4938 C.2       1 <0>        -0.1791
     15 S1         -0.9142   -0.0308    3.9982 S.3       1 <0>         0.0486
     16 N1         -0.8720    1.8711    1.3534 N.pl3     1 <0>        -1.1088
     17 S2         -0.0172    1.4168    0.0098 S.o2      1 <0>         2.7300
     18 O1          0.0021   -0.0041    0.0020 O.2       1 <0>        -0.9431
     19 O2          1.1718    2.1948    0.0027 O.2       1 <0>        -0.9486
     20 C14        -0.9538    1.9155   -1.3968 C.2       1 <0>        -0.8028
     21 C15        -0.9073    3.0861   -2.0619 C.2       1 <0>         0.0552
     22 C16        -1.7890    3.2336   -3.1930 C.2       1 <0>        -0.1923
     23 C17        -2.6114    2.1655   -3.4904 C.2       1 <0>        -0.1096
     24 S3         -2.1980    0.9975   -2.2808 S.3       1 <0>         0.1532
     25 C18        -1.8148    4.4683   -3.9910 C.2       1 <0>         0.5051
     26 O3         -1.0783    5.3922   -3.7051 O.co2     1 <0>        -0.6265
     27 H2         -6.9516    5.3477    5.7570 H         1 <0>         0.0568
     28 H3         -6.8688    3.7175    5.0472 H         1 <0>         0.0553
     29 H4         -5.5065    4.3395    6.0092 H         1 <0>         0.0551
     30 H5         -5.0890    6.0797    4.2928 H         1 <0>         0.0722
     31 H6         -6.4513    5.4577    3.3308 H         1 <0>         0.0727
     32 H7         -6.2951    3.3181    2.1941 H         1 <0>         0.1243
     33 H8         -4.8078    1.6439    1.1704 H         1 <0>         0.1271
     34 H9         -1.5459    3.1277    3.4829 H         1 <0>         0.1212
     35 H10        -3.0311    4.8080    4.4998 H         1 <0>         0.1234
     36 H11        -3.3333   -1.3495    1.8204 H         1 <0>         0.1354
     37 H12        -2.7474   -2.9966    3.5772 H         1 <0>         0.1334
     38 H13        -0.9828   -2.2723    5.3223 H         1 <0>         0.1840
     39 H14        -0.5105    2.5410    1.9546 H         1 <0>         0.4203
     40 H15        -0.2371    3.8782   -1.7625 H         1 <0>         0.1539
     41 H16        -3.3372    2.0792   -4.2855 H         1 <0>         0.1984
     42 O4         -2.6551    4.5757   -5.0395 O.co2     1 <0>        -0.7510
@<TRIPOS>BOND
     1    1    2 1
     2    1   27 1
     3    1   28 1
     4    1   29 1
     5    2    3 1
     6    2   30 1
     7    2   31 1
     8    3    8 ar
     9    3    4 ar
    10    4    5 ar
    11    4   32 1
    12    5    6 ar
    13    5   33 1
    14    6    7 ar
    15    6    9 1
    16    7    8 ar
    17    7   34 1
    18    8   35 1
    19    9   10 1
    20    9   11 1
    21    9   16 1
    22   11   15 1
    23   11   12 2
    24   12   13 1
    25   12   36 1
    26   13   14 2
    27   13   37 1
    28   14   15 1
    29   14   38 1
    30   16   17 1
    31   16   39 1
    32   17   18 2
    33   17   19 2
    34   17   20 1
    35   20   24 1
    36   20   21 2
    37   21   22 1
    38   21   40 1
    39   22   23 2
    40   22   25 1
    41   23   24 1
    42   23   41 1
    43   25   26 2
    44   25   42 1
@<TRIPOS>MOLECULE
ZINC10077349
   38    39     0     0     0
SMALL
USER_CHARGES

@<TRIPOS>ATOM
      1 C1          0.0078    1.5364   -0.0355 C.3       1 <0>        -0.1527
      2 C2          0.0227    0.0064   -0.0357 C.3       1 <0>        -0.1163
      3 C3          0.7412   -0.4964   -1.2894 C.3       1 <0>        -0.0738
      4 C4          0.7559   -2.0034   -1.2896 C.2       1 <0>         0.1951
      5 C5         -0.2073   -2.6939   -1.9670 C.2       1 <0>        -0.2923
      6 C6         -0.1730   -4.0993   -1.9534 C.2       1 <0>         0.5300
      7 O1         -1.0181   -4.7476   -2.5485 O.2       1 <0>        -0.5314
      8 N1          0.8132   -4.7179   -1.2695 N.am      1 <0>        -0.6140
      9 H1          0.8563   -5.6867   -1.2469 H         1 <0>         0.4219
     10 C7          1.7475   -3.9767   -0.6119 C.2       1 <0>         0.3570
     11 N2          1.7107   -2.6582   -0.6341 N.2       1 <0>        -0.5447
     12 S1          3.0306   -4.7925    0.2784 S.3       1 <0>         0.0820
     13 C8          4.0132   -3.4357    0.9741 C.3       1 <0>        -0.1431
     14 C9          5.1598   -4.0029    1.7708 C.2       1 <0>         0.5351
     15 O2          5.3002   -5.2043    1.8605 O.2       1 <0>        -0.4988
     16 N3          6.0291   -3.1752    2.3837 N.am      1 <0>        -0.6647
     17 C10         7.0359   -3.6994    3.2023 C.ar      1 <0>         0.1586
     18 C11         7.4340   -3.0127    4.3418 C.ar      1 <0>        -0.1363
     19 C12         8.4275   -3.5326    5.1480 C.ar      1 <0>        -0.0659
     20 C13         9.0262   -4.7361    4.8211 C.ar      1 <0>        -0.1117
     21 C14         8.6317   -5.4224    3.6867 C.ar      1 <0>        -0.0655
     22 C15         7.6348   -4.9101    2.8798 C.ar      1 <0>        -0.1151
     23 I1         10.5338   -5.5205    6.0463 I         1 <0>        -0.0387
     24 H2          1.0319    1.9097   -0.0417 H         1 <0>         0.0566
     25 H3         -0.5149    1.8948   -0.9223 H         1 <0>         0.0571
     26 H4         -0.5041    1.8946    0.8576 H         1 <0>         0.0582
     27 H5          0.5454   -0.3520    0.8511 H         1 <0>         0.0666
     28 H6         -1.0014   -0.3669   -0.0295 H         1 <0>         0.0651
     29 H7          0.2185   -0.1380   -2.1762 H         1 <0>         0.0883
     30 H8          1.7653   -0.1231   -1.2956 H         1 <0>         0.0882
     31 H9         -0.9834   -2.1691   -2.5044 H         1 <0>         0.1577
     32 H10         4.4034   -2.8178    0.1653 H         1 <0>         0.1374
     33 H11         3.3843   -2.8279    1.6246 H         1 <0>         0.1373
     34 H12         5.9570   -2.2162    2.2574 H         1 <0>         0.4182
     35 H13         6.9674   -2.0727    4.5970 H         1 <0>         0.1365
     36 H14         8.7375   -2.9990    6.0343 H         1 <0>         0.1354
     37 H15         9.1012   -6.3616    3.4338 H         1 <0>         0.1346
     38 H16         7.3241   -5.4485    1.9966 H         1 <0>         0.1482
@<TRIPOS>BOND
     1    1    2 1
     2    1   24 1
     3    1   25 1
     4    1   26 1
     5    2    3 1
     6    2   27 1
     7    2   28 1
     8    3    4 1
     9    3   29 1
    10    3   30 1
    11    4   11 1
    12    4    5 2
    13    5    6 1
    14    5   31 1
    15    6    7 2
    16    6    8 am
    17    8    9 1
    18    8   10 1
    19   10   11 2
    20   10   12 1
    21   12   13 1
    22   13   14 1
    23   13   32 1
    24   13   33 1
    25   14   15 2
    26   14   16 am
    27   16   17 1
    28   16   34 1
    29   17   22 ar
    30   17   18 ar
    31   18   19 ar
    32   18   35 1
    33   19   20 ar
    34   19   36 1
    35   20   21 ar
    36   20   23 1
    37   21   22 ar
    38   21   37 1
    39   22   38 1
@<TRIPOS>MOLECULE
ZINC50806990
   46    48     0     0     0
SMALL
USER_CHARGES

@<TRIPOS>ATOM
      1 C1         -0.0184    1.5028    0.0103 C.3       1 <0>        -0.1152
      2 C2          0.0021   -0.0041    0.0020 C.ar      1 <0>        -0.0764
      3 C3          0.0057   -0.6866   -1.2011 C.ar      1 <0>        -0.1252
      4 C4          0.0244   -2.0666   -1.2144 C.ar      1 <0>        -0.0818
      5 C5          0.0401   -2.7721   -0.0132 C.ar      1 <0>        -0.0318
      6 C6          0.0368   -2.0797    1.1956 C.ar      1 <0>        -0.0805
      7 C7          0.0229   -0.6995    1.1975 C.ar      1 <0>        -0.1232
      8 C8          0.0597   -4.2566   -0.0214 C.2       1 <0>         0.1326
      9 C9          0.0711   -5.0926    1.1175 C.2       1 <0>        -0.2443
     10 C10         0.0881   -6.3856    0.6861 C.2       1 <0>         0.0812
     11 O1          0.0875   -6.3711   -0.6622 O.3       1 <0>        -0.0527
     12 N1          0.0638   -5.0208   -1.0866 N.2       1 <0>        -0.3242
     13 C11         0.1042   -7.5808    1.5377 C.2       1 <0>         0.3918
     14 O2          0.1029   -7.4522    2.8815 O.3       1 <0>        -0.5750
     15 C12         0.1208   -8.8450    0.9606 C.2       1 <0>        -0.3891
     16 C13         0.1222   -8.9815   -0.4649 C.1       1 <0>         0.2885
     17 N2          0.1233   -9.0897   -1.5957 N.1       1 <0>        -0.5064
     18 C14         0.1368  -10.0401    1.8120 C.2       1 <0>         0.5957
     19 O3          0.1356   -9.9241    3.0234 O.2       1 <0>        -0.5401
     20 N3          0.1529  -11.2661    1.2524 N.am      1 <0>        -0.7534
     21 C15         0.1690  -12.4591    2.1024 C.3       1 <0>         0.1354
     22 C16         0.1853  -13.7114    1.2235 C.3       1 <0>        -0.0947
     23 C17         0.2018  -14.9386    2.0979 C.ar      1 <0>        -0.0729
     24 C18         1.4063  -15.4823    2.5033 C.ar      1 <0>        -0.1144
     25 C19         1.4215  -16.6081    3.3054 C.ar      1 <0>        -0.1199
     26 C20         0.2321  -17.1899    3.7025 C.ar      1 <0>        -0.1278
     27 C21        -0.9725  -16.6456    3.2979 C.ar      1 <0>        -0.1199
     28 C22        -0.9877  -15.5174    2.4993 C.ar      1 <0>        -0.1144
     29 H1          1.0042    1.8801    0.0026 H         1 <0>         0.0714
     30 H2         -0.5455    1.8639   -0.8728 H         1 <0>         0.0664
     31 H3         -0.5286    1.8543    0.9071 H         1 <0>         0.0673
     32 H4         -0.0064   -0.1386   -2.1317 H         1 <0>         0.1259
     33 H5          0.0266   -2.5986   -2.1543 H         1 <0>         0.1303
     34 H6          0.0485   -2.6218    2.1296 H         1 <0>         0.1339
     35 H7          0.0244   -0.1617    2.1340 H         1 <0>         0.1283
     36 H8          0.0674   -4.7655    2.1468 H         1 <0>         0.1645
     37 H9          0.1539  -11.3585    0.2868 H         1 <0>         0.3900
     38 H10         1.0590  -12.4451    2.7315 H         1 <0>         0.0608
     39 H11        -0.7208  -12.4687    2.7320 H         1 <0>         0.0608
     40 H12        -0.7048  -13.7254    0.5945 H         1 <0>         0.0774
     41 H13         1.0750  -13.7018    0.5940 H         1 <0>         0.0775
     42 H14         2.3356  -15.0278    2.1930 H         1 <0>         0.1227
     43 H15         2.3626  -17.0333    3.6215 H         1 <0>         0.1200
     44 H16         0.2439  -18.0698    4.3286 H         1 <0>         0.1184
     45 H17        -1.9018  -17.1003    3.6079 H         1 <0>         0.1200
     46 H18        -1.9288  -15.0900    2.1863 H         1 <0>         0.1226
@<TRIPOS>BOND
     1    1    2 1
     2    1   29 1
     3    1   30 1
     4    1   31 1
     5    2    7 ar
     6    2    3 ar
     7    3    4 ar
     8    3   32 1
     9    4    5 ar
    10    4   33 1
    11    5    6 ar
    12    5    8 1
    13    6    7 ar
    14    6   34 1
    15    7   35 1
    16    8   12 2
    17    8    9 1
    18    9   10 2
    19    9   36 1
    20   10   11 1
    21   10   13 1
    22   11   12 1
    23   13   14 1
    24   13   15 2
    25   15   16 1
    26   15   18 1
    27   16   17 3
    28   18   19 2
    29   18   20 am
    30   20   21 1
    31   20   37 1
    32   21   22 1
    33   21   38 1
    34   21   39 1
    35   22   23 1
    36   22   40 1
    37   22   41 1
    38   23   28 ar
    39   23   24 ar
    40   24   25 ar
    41   24   42 1
    42   25   26 ar
    43   25   43 1
    44   26   27 ar
    45   26   44 1
    46   27   28 ar
    47   27   45 1
    48   28   46 1
@<TRIPOS>MOLECULE
ZINC59858215
   45    48     0     0     0
SMALL
USER_CHARGES

@<TRIPOS>ATOM
      1 C1         -0.0167    1.3781    0.0096 C.ar      1 <0>        -0.1125
      2 C2          1.1709    2.0855    0.0021 C.ar      1 <0>        -0.1242
      3 C3          2.3773    1.4107   -0.0130 C.ar      1 <0>        -0.0955
      4 C4          2.3960    0.0285   -0.0201 C.ar      1 <0>        -0.0937
      5 C5          1.2084   -0.6789   -0.0117 C.ar      1 <0>        -0.0954
      6 C6          0.0021   -0.0041    0.0020 C.ar      1 <0>        -0.1242
      7 C7          3.7112   -0.7071   -0.0376 C.3       1 <0>         0.1010
      8 O1          4.1410   -0.9464    1.3041 O.3       1 <0>        -0.3098
      9 C8          5.3183   -1.6048    1.4665 C.ar      1 <0>         0.1263
     10 C9          6.0461   -2.0063    0.3539 C.ar      1 <0>        -0.2161
     11 C10         7.2406   -2.6748    0.5137 C.ar      1 <0>        -0.0653
     12 C11         7.7195   -2.9481    1.7977 C.ar      1 <0>        -0.0607
     13 C12         6.9839   -2.5418    2.9143 C.ar      1 <0>        -0.0409
     14 C13         5.7930   -1.8692    2.7446 C.ar      1 <0>        -0.1518
     15 C14         8.9964   -3.6634    1.9739 C.2       1 <0>         0.0314
     16 N1          9.4395   -3.9163    3.1679 N.2       1 <0>        -0.1338
     17 N2         10.6530   -4.5960    3.3353 N.pl3     1 <0>        -0.5469
     18 C15        11.1259   -4.8660    4.6097 C.ar      1 <0>         0.3280
     19 C16        10.3773   -4.4585    5.7378 C.ar      1 <0>         0.3967
     20 N3         10.8138   -4.7080    6.9528 N.ar      1 <0>        -0.5730
     21 C17        11.9768   -5.3537    7.1242 C.ar      1 <0>         0.1382
     22 C18        12.4636   -5.6322    8.4113 C.ar      1 <0>        -0.1233
     23 C19        13.6474   -6.2896    8.5590 C.ar      1 <0>        -0.1101
     24 C20        14.3859   -6.6913    7.4489 C.ar      1 <0>        -0.1740
     25 C21        13.9442   -6.4376    6.1858 C.ar      1 <0>        -0.0634
     26 C22        12.7272   -5.7625    5.9955 C.ar      1 <0>         0.0072
     27 N4         12.2684   -5.5058    4.7626 N.ar      1 <0>        -0.5078
     28 O2          9.2016   -3.8058    5.5656 O.3       1 <0>        -0.6434
     29 H1         -0.9591    1.9053    0.0259 H         1 <0>         0.1228
     30 H2          1.1563    3.1654    0.0076 H         1 <0>         0.1243
     31 H3          3.3051    1.9634   -0.0196 H         1 <0>         0.1248
     32 H4          1.2231   -1.7588   -0.0176 H         1 <0>         0.1248
     33 H5         -0.9258   -0.5567    0.0082 H         1 <0>         0.1243
     34 H6          3.5884   -1.6586   -0.5549 H         1 <0>         0.0706
     35 H7          4.4573   -0.1052   -0.5563 H         1 <0>         0.0706
     36 H8          5.6753   -1.7946   -0.6381 H         1 <0>         0.1254
     37 H9          7.8056   -2.9873   -0.3521 H         1 <0>         0.1255
     38 H10         7.3501   -2.7509    3.9085 H         1 <0>         0.1579
     39 H11         5.2260   -1.5509    3.6069 H         1 <0>         0.1309
     40 H12         9.5634   -3.9770    1.1099 H         1 <0>         0.1062
     41 H13        11.1622   -4.8777    2.5593 H         1 <0>         0.3767
     42 H14        11.9017   -5.3258    9.2813 H         1 <0>         0.1183
     43 H15        14.0185   -6.5020    9.5508 H         1 <0>         0.1109
     44 H16        15.3219   -7.2109    7.5915 H         1 <0>         0.1101
     45 H17        14.5274   -6.7542    5.3338 H         1 <0>         0.1130
@<TRIPOS>BOND
     1    1    6 ar
     2    1    2 ar
     3    1   29 1
     4    2    3 ar
     5    2   30 1
     6    3    4 ar
     7    3   31 1
     8    4    5 ar
     9    4    7 1
    10    5    6 ar
    11    5   32 1
    12    6   33 1
    13    7    8 1
    14    7   34 1
    15    7   35 1
    16    8    9 1
    17    9   14 ar
    18    9   10 ar
    19   10   11 ar
    20   10   36 1
    21   11   12 ar
    22   11   37 1
    23   12   13 ar
    24   12   15 1
    25   13   14 ar
    26   13   38 1
    27   14   39 1
    28   15   16 2
    29   15   40 1
    30   16   17 1
    31   17   18 1
    32   17   41 1
    33   18   27 ar
    34   18   19 ar
    35   19   20 ar
    36   19   28 1
    37   20   21 ar
    38   21   26 ar
    39   21   22 ar
    40   22   23 ar
    41   22   42 1
    42   23   24 ar
    43   23   43 1
    44   24   25 ar
    45   24   44 1
    46   25   26 ar
    47   25   45 1
    48   26   27 ar
@<TRIPOS>MOLECULE
ZINC02978047
   50    53     0     0     0
SMALL
USER_CHARGES
3-[5-[2-[(2-fluorophenyl)methylsulfanyl]phenyl]-1,3,4-thiadiazol-2-yl]-1-(o-tolyl)urea
@<TRIPOS>ATOM
      1 C1          0.1441    0.3022   -1.2412 C.3       1 <0>        -0.1160
      2 C2          0.0504    1.6504   -0.5743 C.ar      1 <0>        -0.1088
      3 C3         -1.1529    2.3285   -0.5519 C.ar      1 <0>        -0.1035
      4 C4         -1.2410    3.5630    0.0644 C.ar      1 <0>        -0.1263
      5 C5         -0.1230    4.1277    0.6510 C.ar      1 <0>        -0.1055
      6 C6          1.0841    3.4574    0.6270 C.ar      1 <0>        -0.1134
      7 C7          1.1747    2.2148    0.0133 C.ar      1 <0>         0.1536
      8 N1          2.3965    1.5332   -0.0131 N.am      1 <0>        -0.6722
      9 C8          3.5500    2.2217   -0.1222 C.2       1 <0>         0.6996
     10 O1          3.5353    3.4375   -0.1152 O.2       1 <0>        -0.5018
     11 N2          4.7198    1.5626   -0.2389 N.am      1 <0>        -0.6161
     12 C9          5.9093    2.2727   -0.3514 C.2       1 <0>         0.3016
     13 N3          6.1215    3.5819   -0.3720 N.2       1 <0>        -0.2673
     14 N4          7.2807    4.0680   -0.4766 N.2       1 <0>        -0.2286
     15 C10         8.3567    3.2978   -0.5847 C.2       1 <0>         0.0926
     16 S1          7.5909    1.6808   -0.5176 S.3       1 <0>         0.0047
     17 C11         9.7798    3.6691   -0.7218 C.ar      1 <0>        -0.0037
     18 C12        10.7568    2.6782   -0.8218 C.ar      1 <0>        -0.0695
     19 C13        12.0844    3.0309   -0.9496 C.ar      1 <0>        -0.1259
     20 C14        12.4534    4.3652   -0.9793 C.ar      1 <0>        -0.0738
     21 C15        11.4968    5.3569   -0.8818 C.ar      1 <0>        -0.1368
     22 C16        10.1559    5.0198   -0.7580 C.ar      1 <0>        -0.0552
     23 S2          8.9329    6.2827   -0.6401 S.3       1 <0>         0.0002
     24 C17         9.8840    7.8246   -0.7317 C.3       1 <0>        -0.1042
     25 C18         8.9453    9.0000   -0.6412 C.ar      1 <0>        -0.1084
     26 C19         8.4043    9.5429   -1.7915 C.ar      1 <0>        -0.0732
     27 C20         7.5387   10.6173   -1.7084 C.ar      1 <0>        -0.1283
     28 C21         7.2219   11.1576   -0.4756 C.ar      1 <0>        -0.0833
     29 C22         7.7660   10.6201    0.6752 C.ar      1 <0>        -0.1533
     30 C23         8.6289    9.5401    0.5936 C.ar      1 <0>         0.1157
     31 F1          9.1618    9.0141    1.7181 F         1 <0>        -0.1328
     32 H1         -0.0691   -0.4794   -0.5121 H         1 <0>         0.0722
     33 H2         -0.5797    0.2479   -2.0543 H         1 <0>         0.0732
     34 H3          1.1491    0.1630   -1.6396 H         1 <0>         0.0617
     35 H4         -2.0266    1.8922   -1.0131 H         1 <0>         0.1273
     36 H5         -2.1837    4.0895    0.0838 H         1 <0>         0.1249
     37 H6         -0.1941    5.0940    1.1280 H         1 <0>         0.1271
     38 H7          1.9569    3.8992    1.0847 H         1 <0>         0.1420
     39 H8          2.4133    0.5652    0.0471 H         1 <0>         0.4095
     40 H9          4.7315    0.5927   -0.2444 H         1 <0>         0.4263
     41 H10        10.4741    1.6361   -0.7988 H         1 <0>         0.1310
     42 H11        12.8394    2.2627   -1.0272 H         1 <0>         0.1354
     43 H12        13.4951    4.6321   -1.0796 H         1 <0>         0.1334
     44 H13        11.7920    6.3955   -0.9060 H         1 <0>         0.1318
     45 H14        10.5946    7.8627    0.0940 H         1 <0>         0.0994
     46 H15        10.4239    7.8628   -1.6778 H         1 <0>         0.1023
     47 H16         8.6544    9.1245   -2.7552 H         1 <0>         0.1352
     48 H17         7.1129   11.0380   -2.6073 H         1 <0>         0.1333
     49 H18         6.5493   12.0001   -0.4123 H         1 <0>         0.1353
     50 H19         7.5187   11.0425    1.6379 H         1 <0>         0.1384
@<TRIPOS>BOND
     1    1    2 1
     2    1   32 1
     3    1   33 1
     4    1   34 1
     5    2    7 ar
     6    2    3 ar
     7    3    4 ar
     8    3   35 1
     9    4    5 ar
    10    4   36 1
    11    5    6 ar
    12    5   37 1
    13    6    7 ar
    14    6   38 1
    15    7    8 1
    16    8    9 am
    17    8   39 1
    18    9   10 2
    19    9   11 am
    20   11   12 1
    21   11   40 1
    22   12   16 1
    23   12   13 2
    24   13   14 1
    25   14   15 2
    26   15   16 1
    27   15   17 1
    28   17   22 ar
    29   17   18 ar
    30   18   19 ar
    31   18   41 1
    32   19   20 ar
    33   19   42 1
    34   20   21 ar
    35   20   43 1
    36   21   22 ar
    37   21   44 1
    38   22   23 1
    39   23   24 1
    40   24   25 1
    41   24   45 1
    42   24   46 1
    43   25   30 ar
    44   25   26 ar
    45   26   27 ar
    46   26   47 1
    47   27   28 ar
    48   27   48 1
    49   28   29 ar
    50   28   49 1
    51   29   30 ar
    52   29   50 1
    53   30   31 1
@<TRIPOS>MOLECULE
ZINC20752713
   55    59     0     0     0
SMALL
USER_CHARGES
(3aS,4S,9bS)-N-(4-ethoxyphenyl)-4-(2-thienyl)-3a,4,5,9b-tetrahydro-3H-cyclopenta[c]quinoline-8-sulfonamide
@<TRIPOS>ATOM
      1 C1          2.0425   -4.3904    4.8481 C.3       1 <0>        -0.1553
      2 C2          1.1018   -3.6703    3.8800 C.3       1 <0>         0.0506
      3 O1          0.4770   -2.5735    4.5500 O.3       1 <0>        -0.3146
      4 C3         -0.3959   -1.8236    3.8253 C.ar      1 <0>         0.1391
      5 C4         -1.0374   -0.7441    4.4144 C.ar      1 <0>        -0.1472
      6 C5         -1.9243    0.0178    3.6794 C.ar      1 <0>        -0.0689
      7 C6         -2.1735   -0.2969    2.3500 C.ar      1 <0>         0.0911
      8 C7         -1.5349   -1.3810    1.7626 C.ar      1 <0>        -0.0642
      9 C8         -0.6439   -2.1384    2.4975 C.ar      1 <0>        -0.2024
     10 N1         -3.0720    0.4745    1.6045 N.pl3     1 <0>        -1.0755
     11 S1         -2.5051    1.5511    0.4811 S.o2      1 <0>         2.6946
     12 O2         -3.6401    2.2273   -0.0422 O.2       1 <0>        -0.9619
     13 O3         -1.5968    0.8356   -0.3448 O.2       1 <0>        -0.9585
     14 C9         -1.5558    2.7565    1.3474 C.ar      1 <0>        -0.7259
     15 C10        -0.1834    2.6158    1.4465 C.ar      1 <0>         0.0299
     16 C11         0.5627    3.5579    2.1239 C.ar      1 <0>        -0.2124
     17 C12        -0.0578    4.6515    2.7158 C.ar      1 <0>         0.2788
     18 C13        -1.4460    4.7905    2.6065 C.ar      1 <0>        -0.1695
     19 C14        -2.1830    3.8409    1.9325 C.ar      1 <0>         0.0292
     20 C15        -2.0639    5.9816    3.2281 C.3       1 <0>        -0.0169
     21 H1         -2.0601    6.6462    2.3516 H         1 <0>         0.1009
     22 C16        -3.4788    5.9883    3.6798 C.2       1 <0>        -0.1671
     23 C17        -3.5868    6.8026    4.7227 C.2       1 <0>        -0.1753
     24 C18        -2.2173    7.3872    5.0741 C.3       1 <0>        -0.0840
     25 C19        -1.2718    6.3080    4.5295 C.3       1 <0>        -0.0764
     26 H2         -1.0430    5.5521    5.2952 H         1 <0>         0.1059
     27 C20         0.1009    6.7607    4.0651 C.3       1 <0>         0.2451
     28 H3          0.0512    7.6012    3.3572 H         1 <0>         0.0938
     29 N2          0.7163    5.5771    3.4261 N.pl3     1 <0>        -0.7460
     30 C21         0.9286    7.2054    5.2433 C.2       1 <0>        -0.1663
     31 C22         1.1793    8.4622    5.6846 C.2       1 <0>        -0.1377
     32 C23         1.9760    8.6343    6.8010 C.2       1 <0>        -0.1585
     33 C24         2.4831    7.5410    7.4214 C.2       1 <0>        -0.1681
     34 S2          1.8268    6.2131    6.4247 S.3       1 <0>         0.0523
     35 H4          2.5234   -5.2346    4.3323 H         1 <0>         0.0805
     36 H5          1.4673   -4.7653    5.7075 H         1 <0>         0.0674
     37 H6          2.8131   -3.6890    5.2005 H         1 <0>         0.0673
     38 H7          1.6770   -3.2954    3.0206 H         1 <0>         0.0651
     39 H8          0.3312   -4.3717    3.5276 H         1 <0>         0.0648
     40 H9         -0.8434   -0.4994    5.4483 H         1 <0>         0.1343
     41 H10        -2.4242    0.8579    4.1384 H         1 <0>         0.1340
     42 H11        -1.7317   -1.6294    0.7301 H         1 <0>         0.1367
     43 H12        -0.1437   -2.9789    2.0394 H         1 <0>         0.1337
     44 H13        -4.1548    0.3658    1.7647 H         1 <0>         0.4475
     45 H14         0.3057    1.7687    0.9887 H         1 <0>         0.1368
     46 H15         1.6344    3.4449    2.1948 H         1 <0>         0.1288
     47 H16        -3.2552    3.9464    1.8575 H         1 <0>         0.1343
     48 H17        -4.3655    5.4587    3.3014 H         1 <0>         0.1357
     49 H18        -4.5672    6.9653    5.1943 H         1 <0>         0.1327
     50 H19        -2.0961    8.3613    4.5776 H         1 <0>         0.0830
     51 H20        -2.1436    7.5193    6.1636 H         1 <0>         0.0748
     52 H21         1.8010    5.4115    3.5042 H         1 <0>         0.4258
     53 H22         0.7630    9.3165    5.1715 H         1 <0>         0.1347
     54 H23         2.1910    9.6249    7.1735 H         1 <0>         0.1364
     55 H24         3.1165    7.4870    8.2945 H         1 <0>         0.1871
@<TRIPOS>BOND
     1    1    2 1
     2    1   35 1
     3    1   36 1
     4    1   37 1
     5    2    3 1
     6    2   38 1
     7    2   39 1
     8    3    4 1
     9    4    9 ar
    10    4    5 ar
    11    5    6 ar
    12    5   40 1
    13    6    7 ar
    14    6   41 1
    15    7    8 ar
    16    7   10 1
    17    8    9 ar
    18    8   42 1
    19    9   43 1
    20   10   11 1
    21   10   44 1
    22   11   12 2
    23   11   13 2
    24   11   14 1
    25   14   19 ar
    26   14   15 ar
    27   15   16 ar
    28   15   45 1
    29   16   17 ar
    30   16   46 1
    31   17   29 1
    32   17   18 ar
    33   18   19 ar
    34   18   20 1
    35   19   47 1
    36   20   21 1
    37   20   25 1
    38   20   22 1
    39   22   23 2
    40   22   48 1
    41   23   24 1
    42   23   49 1
    43   24   25 1
    44   24   50 1
    45   24   51 1
    46   25   26 1
    47   25   27 1
    48   27   28 1
    49   27   29 1
    50   27   30 1
    51   29   52 1
    52   30   34 1
    53   30   31 2
    54   31   32 1
    55   31   53 1
    56   32   33 2
    57   32   54 1
    58   33   34 1
    59   33   55 1
@<TRIPOS>MOLECULE
ZINC35982122
   61    64     0     0     0
SMALL
USER_CHARGES

@<TRIPOS>ATOM
      1 C1         -2.0558   -3.8399    0.8320 C.3       1 <0>        -0.1550
      2 C2         -2.9409   -3.4293   -0.3465 C.3       1 <0>        -0.1184
      3 C3         -3.0787   -1.9057   -0.3743 C.3       1 <0>         0.0791
      4 H1         -2.0880   -1.4517   -0.3959 H         1 <0>         0.0833
      5 C4         -3.8590   -1.4869   -1.6219 C.3       1 <0>        -0.1720
      6 O1         -3.7774   -1.4693    0.7934 O.3       1 <0>        -0.3365
      7 C5         -3.4740   -0.2423    1.2660 C.2       1 <0>         0.5347
      8 O2         -2.6383    0.4380    0.7008 O.2       1 <0>        -0.4995
      9 C6         -4.1276    0.2532    2.4185 C.2       1 <0>        -0.2236
     10 C7         -5.4042    0.6640    2.3271 C.2       1 <0>         0.1827
     11 N1         -6.0548    1.1530    3.4253 N.pl3     1 <0>        -0.6336
     12 C8         -5.3515    1.6042    4.5098 C.2       1 <0>         0.2198
     13 C9         -4.0659    1.2361    4.6943 C.2       1 <0>        -0.2730
     14 C10        -3.3845    0.3044    3.7211 C.3       1 <0>         0.0876
     15 H2         -2.3695    0.6585    3.5405 H         1 <0>         0.0909
     16 C11        -3.3262   -1.0805    4.3123 C.ar      1 <0>        -0.0788
     17 C12        -4.4966   -1.7535    4.6104 C.ar      1 <0>        -0.0839
     18 C13        -4.4459   -3.0230    5.1528 C.ar      1 <0>        -0.1466
     19 C14        -3.2191   -3.6227    5.3981 C.ar      1 <0>         0.1029
     20 C15        -2.0462   -2.9455    5.0977 C.ar      1 <0>        -0.1431
     21 C16        -2.1024   -1.6783    4.5506 C.ar      1 <0>        -0.0834
     22 O3         -3.1666   -4.8713    5.9321 O.3       1 <0>        -0.5004
     23 C17        -3.3277    1.7053    5.7949 C.2       1 <0>         0.4037
     24 O4         -2.1747    1.3488    5.9353 O.2       1 <0>        -0.4626
     25 C18        -3.9390    2.6411    6.8017 C.3       1 <0>        -0.1590
     26 C19        -5.0279    3.4716    6.1145 C.3       1 <0>        -0.0342
     27 H3         -4.5806    4.0892    5.3357 H         1 <0>         0.0918
     28 C20        -6.0470    2.5155    5.4906 C.3       1 <0>        -0.0900
     29 C21        -5.7095    4.3522    7.1299 C.ar      1 <0>        -0.0819
     30 C22        -6.3526    3.7863    8.2148 C.ar      1 <0>        -0.1138
     31 C23        -6.9778    4.5940    9.1462 C.ar      1 <0>        -0.1167
     32 C24        -6.9595    5.9677    8.9930 C.ar      1 <0>        -0.1188
     33 C25        -6.3156    6.5337    7.9086 C.ar      1 <0>        -0.1169
     34 C26        -5.6867    5.7262    6.9794 C.ar      1 <0>        -0.1111
     35 C27        -6.1228    0.5854    1.0048 C.3       1 <0>        -0.1300
     36 H4         -1.9576   -4.9253    0.8517 H         1 <0>         0.0579
     37 H5         -1.0702   -3.3879    0.7209 H         1 <0>         0.0533
     38 H6         -2.5090   -3.4991    1.7628 H         1 <0>         0.0605
     39 H7         -2.4877   -3.7701   -1.2774 H         1 <0>         0.0822
     40 H8         -3.9266   -3.8813   -0.2355 H         1 <0>         0.0738
     41 H9         -3.9572   -0.4015   -1.6417 H         1 <0>         0.0600
     42 H10        -3.3261   -1.8198   -2.5126 H         1 <0>         0.0749
     43 H11        -4.8497   -1.9409   -1.6003 H         1 <0>         0.0661
     44 H12        -7.0243    1.1808    3.4363 H         1 <0>         0.4195
     45 H13        -5.4514   -1.2862    4.4193 H         1 <0>         0.1163
     46 H14        -5.3604   -3.5480    5.3861 H         1 <0>         0.1249
     47 H15        -1.0900   -3.4102    5.2878 H         1 <0>         0.1272
     48 H16        -1.1896   -1.1524    4.3125 H         1 <0>         0.1249
     49 H17        -3.1589   -5.5803    5.2746 H         1 <0>         0.3889
     50 H18        -4.3790    2.0646    7.6154 H         1 <0>         0.1026
     51 H19        -3.1697    3.3043    7.1973 H         1 <0>         0.1002
     52 H20        -6.8135    3.0905    4.9711 H         1 <0>         0.0945
     53 H21        -6.5114    1.9177    6.2749 H         1 <0>         0.1025
     54 H22        -6.3669    2.7130    8.3345 H         1 <0>         0.1224
     55 H23        -7.4809    4.1518    9.9934 H         1 <0>         0.1233
     56 H24        -7.4486    6.5988    9.7203 H         1 <0>         0.1224
     57 H25        -6.3016    7.6069    7.7887 H         1 <0>         0.1234
     58 H26        -5.1805    6.1685    6.1342 H         1 <0>         0.1231
     59 H27        -6.5923   -0.3931    0.9040 H         1 <0>         0.0949
     60 H28        -6.8870    1.3614    0.9600 H         1 <0>         0.0829
     61 H29        -5.4090    0.7312    0.1941 H         1 <0>         0.0836
@<TRIPOS>BOND
     1    1    2 1
     2    1   36 1
     3    1   37 1
     4    1   38 1
     5    2    3 1
     6    2   39 1
     7    2   40 1
     8    3    4 1
     9    3    5 1
    10    3    6 1
    11    5   41 1
    12    5   42 1
    13    5   43 1
    14    6    7 1
    15    7    8 2
    16    7    9 1
    17    9   14 1
    18    9   10 2
    19   10   11 1
    20   10   35 1
    21   11   12 1
    22   11   44 1
    23   12   28 1
    24   12   13 2
    25   13   14 1
    26   13   23 1
    27   14   15 1
    28   14   16 1
    29   16   21 ar
    30   16   17 ar
    31   17   18 ar
    32   17   45 1
    33   18   19 ar
    34   18   46 1
    35   19   20 ar
    36   19   22 1
    37   20   21 ar
    38   20   47 1
    39   21   48 1
    40   22   49 1
    41   23   24 2
    42   23   25 1
    43   25   26 1
    44   25   50 1
    45   25   51 1
    46   26   27 1
    47   26   28 1
    48   26   29 1
    49   28   52 1
    50   28   53 1
    51   29   34 ar
    52   29   30 ar
    53   30   31 ar
    54   30   54 1
    55   31   32 ar
    56   31   55 1
    57   32   33 ar
    58   32   56 1
    59   33   34 ar
    60   33   57 1
    61   34   58 1
    62   35   59 1
    63   35   60 1
    64   35   61 1
@<TRIPOS>MOLECULE
ZINC39344472
   65    68     0     0     0
SMALL
USER_CHARGES

@<TRIPOS>ATOM
      1 C1         -0.0184    1.5028    0.0103 C.3       1 <0>        -0.1161
      2 C2          0.0021   -0.0041    0.0020 C.ar      1 <0>        -0.0350
      3 C3          0.0057   -0.6881   -1.1998 C.ar      1 <0>        -0.1796
      4 C4          0.0240   -2.0708   -1.2119 C.ar      1 <0>        -0.0359
      5 C5          0.0391   -2.7732   -0.0230 C.ar      1 <0>        -0.2036
      6 C6          0.0360   -2.0892    1.1861 C.ar      1 <0>         0.2473
      7 C7          0.0229   -0.7002    1.1946 C.ar      1 <0>        -0.2019
      8 N1          0.0513   -2.7964    2.3904 N.pl3     1 <0>        -0.6267
      9 C8          0.0777   -4.2603    2.5242 C.3       1 <0>         0.1419
     10 H1          0.9671   -4.6610    2.0377 H         1 <0>         0.0719
     11 C9          0.1150   -4.5820    4.0331 C.3       1 <0>        -0.1147
     12 C10         0.6784   -3.2760    4.6530 C.3       1 <0>        -0.0959
     13 H2          1.7663   -3.2512    4.5898 H         1 <0>         0.0963
     14 C11         0.0499   -2.1986    3.7380 C.3       1 <0>         0.1547
     15 H3          0.6530   -1.2907    3.7508 H         1 <0>         0.0843
     16 C12        -1.3816   -1.8948    4.1844 C.3       1 <0>        -0.1717
     17 C13         0.2192   -3.1130    6.0790 C.2       1 <0>         0.0309
     18 C14         1.1247   -3.0127    7.0707 C.2       1 <0>        -0.1191
     19 C15         2.5240   -3.0609    6.7701 C.1       1 <0>         0.2397
     20 N2          3.6341   -3.0992    6.5317 N.1       1 <0>        -0.3977
     21 C16         0.6746   -2.8529    8.4688 C.2       1 <0>         0.5714
     22 O1         -0.5133   -2.8120    8.7239 O.2       1 <0>        -0.5242
     23 N3          1.5808   -2.7526    9.4613 N.am      1 <0>        -0.7246
     24 C17         1.1344   -2.5941   10.8476 C.3       1 <0>         0.1240
     25 C18         2.3528   -2.5050   11.7687 C.3       1 <0>        -0.0543
     26 C19         1.8936   -2.3420   13.1947 C.2       1 <0>        -0.1736
     27 C20         1.5179   -3.4161   14.1173 C.ar      1 <0>        -0.1002
     28 C21         1.4595   -4.8070   14.0149 C.ar      1 <0>        -0.0717
     29 C22         1.0564   -5.5500   15.0887 C.ar      1 <0>        -0.1442
     30 C23         0.7041   -4.9327   16.2808 C.ar      1 <0>        -0.0978
     31 C24         0.7546   -3.5613   16.4037 C.ar      1 <0>        -0.1300
     32 C25         1.1623   -2.7855   15.3238 C.ar      1 <0>         0.0949
     33 N4          1.3151   -1.4303   15.1340 N.pl3     1 <0>        -0.5944
     34 C26         1.7568   -1.1855   13.8623 C.2       1 <0>         0.0628
     35 C27        -1.1778   -4.8635    1.8911 C.3       1 <0>        -0.1717
     36 C28         0.0269   -2.8120   -2.5241 C.3       1 <0>        -0.1160
     37 H4          1.0042    1.8801    0.0026 H         1 <0>         0.0706
     38 H5         -0.5455    1.8639   -0.8728 H         1 <0>         0.0669
     39 H6         -0.5286    1.8543    0.9071 H         1 <0>         0.0649
     40 H7         -0.0061   -0.1413   -2.1310 H         1 <0>         0.1166
     41 H8          0.0530   -3.8531   -0.0331 H         1 <0>         0.1226
     42 H9          0.0244   -0.1652    2.1328 H         1 <0>         0.1171
     43 H10        -0.8877   -4.7859    4.4088 H         1 <0>         0.0898
     44 H11         0.7807   -5.4218    4.2320 H         1 <0>         0.0886
     45 H12        -1.9664   -2.8146    4.1802 H         1 <0>         0.0655
     46 H13        -1.3675   -1.4777    5.1913 H         1 <0>         0.0706
     47 H14        -1.8308   -1.1755    3.4995 H         1 <0>         0.0655
     48 H15        -0.8361   -3.0766    6.3057 H         1 <0>         0.1634
     49 H16         2.5287   -2.7852    9.2577 H         1 <0>         0.4006
     50 H17         0.5438   -1.6824   10.9371 H         1 <0>         0.0735
     51 H18         0.5249   -3.4515   11.1332 H         1 <0>         0.0750
     52 H19         2.9435   -3.4167   11.6791 H         1 <0>         0.0775
     53 H20         2.9623   -1.6477   11.4830 H         1 <0>         0.0770
     54 H21         1.7314   -5.2942   13.0902 H         1 <0>         0.1204
     55 H22         1.0113   -6.6261   15.0089 H         1 <0>         0.1227
     56 H23         0.3870   -5.5334   17.1204 H         1 <0>         0.1256
     57 H24         0.4781   -3.0903   17.3355 H         1 <0>         0.1199
     58 H25         1.9622   -0.2066   13.4550 H         1 <0>         0.1708
     59 H26         1.1397   -0.7506   15.8035 H         1 <0>         0.4173
     60 H27        -1.2144   -4.5995    0.8342 H         1 <0>         0.0679
     61 H28        -1.1513   -5.9483    1.9940 H         1 <0>         0.0658
     62 H29        -2.0621   -4.4723    2.3942 H         1 <0>         0.0618
     63 H30         1.0551   -2.9771   -2.8458 H         1 <0>         0.0707
     64 H31        -0.4736   -3.7723   -2.4000 H         1 <0>         0.0646
     65 H32        -0.4988   -2.2227   -3.2754 H         1 <0>         0.0669
@<TRIPOS>BOND
     1    1    2 1
     2    1   37 1
     3    1   38 1
     4    1   39 1
     5    2    7 ar
     6    2    3 ar
     7    3    4 ar
     8    3   40 1
     9    4    5 ar
    10    4   36 1
    11    5    6 ar
    12    5   41 1
    13    6    7 ar
    14    6    8 1
    15    7   42 1
    16    8   14 1
    17    8    9 1
    18    9   10 1
    19    9   11 1
    20    9   35 1
    21   11   12 1
    22   11   43 1
    23   11   44 1
    24   12   13 1
    25   12   14 1
    26   12   17 1
    27   14   15 1
    28   14   16 1
    29   16   45 1
    30   16   46 1
    31   16   47 1
    32   17   18 2
    33   17   48 1
    34   18   19 1
    35   18   21 1
    36   19   20 3
    37   21   22 2
    38   21   23 am
    39   23   24 1
    40   23   49 1
    41   24   25 1
    42   24   50 1
    43   24   51 1
    44   25   52 1
    45   25   53 1
    46   25   26 1
    47   26   27 1
    48   26   34 2
    49   27   28 ar
    50   27   32 ar
    51   28   29 ar
    52   28   54 1
    53   29   30 ar
    54   29   55 1
    55   30   31 ar
    56   30   56 1
    57   31   32 ar
    58   31   57 1
    59   32   33 1
    60   33   59 1
    61   33   34 1
    62   34   58 1
    63   35   60 1
    64   35   61 1
    65   35   62 1
    66   36   63 1
    67   36   64 1
    68   36   65 1
@<TRIPOS>MOLECULE
ZINC58326867
   54    57     0     0     0
SMALL
USER_CHARGES

@<TRIPOS>ATOM
      1 C1          0.1537    1.3723    0.6419 C.ar      1 <0>        -0.1001
      2 C2          1.1725    2.0900    0.0424 C.ar      1 <0>        -0.1230
      3 C3          2.2149    1.4297   -0.5802 C.ar      1 <0>        -0.1136
      4 C4          2.2410    0.0424   -0.6049 C.ar      1 <0>        -0.1174
      5 C5          1.2131   -0.6811    0.0001 C.ar      1 <0>         0.1890
      6 C6          0.1717   -0.0101    0.6222 C.ar      1 <0>        -0.1157
      7 N1          1.2330   -2.0827   -0.0214 N.am      1 <0>        -0.6788
      8 C7          0.0816   -2.7747    0.0876 C.2       1 <0>         0.7063
      9 O1         -0.9824   -2.1863    0.1015 O.2       1 <0>        -0.5661
     10 N2          0.1095   -4.1190    0.1812 N.am      1 <0>        -0.7409
     11 C8         -1.1420   -4.8711    0.2997 C.3       1 <0>         0.1442
     12 C9         -0.8317   -6.3667    0.3892 C.3       1 <0>        -0.0478
     13 C10        -2.1192   -7.1404    0.5111 C.2       1 <0>        -0.0064
     14 C11        -2.5172   -8.1468   -0.2879 C.2       1 <0>        -0.0594
     15 O2         -3.7188   -8.5624    0.1602 O.3       1 <0>        -0.1933
     16 C12        -4.0411   -7.8078    1.2250 C.2       1 <0>         0.2389
     17 N3         -3.0695   -6.9519    1.4394 N.2       1 <0>        -0.4621
     18 C13        -5.2787   -7.9265    2.0240 C.ar      1 <0>        -0.0333
     19 C14        -5.4974   -7.0739    3.1075 C.ar      1 <0>        -0.0391
     20 C15        -6.6542   -7.1886    3.8494 C.ar      1 <0>        -0.1544
     21 C16        -7.5987   -8.1483    3.5209 C.ar      1 <0>         0.1217
     22 C17        -7.3866   -8.9973    2.4462 C.ar      1 <0>        -0.1546
     23 C18        -6.2358   -8.8877    1.6944 C.ar      1 <0>        -0.0581
     24 F1         -8.7301   -8.2567    4.2513 F         1 <0>        -0.1321
     25 S1          3.5682   -0.8025   -1.3983 S.3       1 <0>        -0.1291
     26 C19         4.6289    0.5316   -2.0192 C.3       1 <0>        -0.0700
     27 C20         3.9080    1.2984   -3.1472 C.3       1 <0>        -0.1240
     28 C21         5.0344    1.6411   -4.1536 C.3       1 <0>        -0.1232
     29 C22         5.9220    0.3722   -4.1183 C.3       1 <0>        -0.1231
     30 C23         5.9094   -0.0572   -2.6367 C.3       1 <0>        -0.1022
     31 H1         -0.6561    1.8932    1.1309 H         1 <0>         0.1285
     32 H2          1.1533    3.1697    0.0604 H         1 <0>         0.1258
     33 H3          3.0087    1.9933   -1.0478 H         1 <0>         0.1294
     34 H4         -0.6255   -0.5671    1.0918 H         1 <0>         0.1526
     35 H5          2.0754   -2.5545   -0.1148 H         1 <0>         0.4079
     36 H6          0.9583   -4.5884    0.1701 H         1 <0>         0.3987
     37 H7         -1.6719   -4.5556    1.1984 H         1 <0>         0.0801
     38 H8         -1.7644   -4.6809   -0.5747 H         1 <0>         0.0698
     39 H9         -0.3018   -6.6822   -0.5095 H         1 <0>         0.0899
     40 H10        -0.2093   -6.5569    1.2636 H         1 <0>         0.0909
     41 H11        -1.9751   -8.5471   -1.1318 H         1 <0>         0.2203
     42 H12        -4.7619   -6.3260    3.3645 H         1 <0>         0.1498
     43 H13        -6.8242   -6.5298    4.6880 H         1 <0>         0.1471
     44 H14        -8.1259   -9.7434    2.1946 H         1 <0>         0.1457
     45 H15        -6.0735   -9.5469    0.8544 H         1 <0>         0.1424
     46 H16         4.8848    1.2131   -1.2079 H         1 <0>         0.0951
     47 H17         3.1554    0.6658   -3.6178 H         1 <0>         0.0818
     48 H18         3.4532    2.2096   -2.7588 H         1 <0>         0.0735
     49 H19         4.6257    1.7990   -5.1517 H         1 <0>         0.0724
     50 H20         5.5959    2.5146   -3.8222 H         1 <0>         0.0700
     51 H21         5.4946   -0.4098   -4.7458 H         1 <0>         0.0701
     52 H22         6.9369    0.6076   -4.4387 H         1 <0>         0.0715
     53 H23         6.7868    0.3392   -2.1256 H         1 <0>         0.0795
     54 H24         5.8935   -1.1446   -2.5633 H         1 <0>         0.0747
@<TRIPOS>BOND
     1    1    6 ar
     2    1    2 ar
     3    1   31 1
     4    2    3 ar
     5    2   32 1
     6    3    4 ar
     7    3   33 1
     8    4    5 ar
     9    4   25 1
    10    5    6 ar
    11    5    7 1
    12    6   34 1
    13    7    8 am
    14    7   35 1
    15    8    9 2
    16    8   10 am
    17   10   11 1
    18   10   36 1
    19   11   12 1
    20   11   37 1
    21   11   38 1
    22   12   13 1
    23   12   39 1
    24   12   40 1
    25   13   17 1
    26   13   14 2
    27   14   15 1
    28   14   41 1
    29   15   16 1
    30   16   17 2
    31   16   18 1
    32   18   23 ar
    33   18   19 ar
    34   19   20 ar
    35   19   42 1
    36   20   21 ar
    37   20   43 1
    38   21   22 ar
    39   21   24 1
    40   22   23 ar
    41   22   44 1
    42   23   45 1
    43   25   26 1
    44   26   30 1
    45   26   27 1
    46   26   46 1
    47   27   28 1
    48   27   47 1
    49   27   48 1
    50   28   29 1
    51   28   49 1
    52   28   50 1
    53   29   30 1
    54   29   51 1
    55   29   52 1
    56   30   53 1
    57   30   54 1
@<TRIPOS>MOLECULE
ZINC13250632
   43    44     0     0     0
SMALL
USER_CHARGES
5-[[2-ethylamino-5-(trifluoromethylsulfonyl)phenyl]sulfamoyl]-2-fluoro-benzoic acid
@<TRIPOS>ATOM
      1 C1          2.9919   -1.8585   -2.8017 C.3       1 <0>        -0.1700
      2 C2          3.3586   -0.5317   -2.1338 C.3       1 <0>         0.1123
      3 N1          2.2000   -0.0185   -1.3986 N.pl3     1 <0>        -0.7283
      4 C3          2.2936    1.1919   -0.7009 C.ar      1 <0>         0.2726
      5 C4          3.4801    1.9095   -0.7095 C.ar      1 <0>        -0.1960
      6 C5          3.5722    3.1014   -0.0148 C.ar      1 <0>         0.0294
      7 C6          2.4818    3.5847    0.6844 C.ar      1 <0>        -0.6906
      8 C7          1.2930    2.8788    0.6933 C.ar      1 <0>        -0.0251
      9 C8          1.1919    1.6824   -0.0003 C.ar      1 <0>         0.0713
     10 N2         -0.0111    0.9658    0.0074 N.pl3     1 <0>        -1.0525
     11 S1         -1.4563    1.7742    0.0186 S.o2      1 <0>         2.6901
     12 O1         -2.4755    0.7845   -0.0090 O.2       1 <0>        -0.9402
     13 O2         -1.3685    2.7488    1.0490 O.2       1 <0>        -0.9449
     14 C9         -1.5709    2.6577   -1.5016 C.ar      1 <0>        -0.7118
     15 C10        -1.0873    3.9525   -1.5854 C.ar      1 <0>         0.0043
     16 C11        -1.1671    4.6522   -2.7745 C.ar      1 <0>        -0.1918
     17 C12        -1.7421    4.0660   -3.8876 C.ar      1 <0>         0.1923
     18 C13        -2.2375    2.7603   -3.8072 C.ar      1 <0>        -0.1719
     19 C14        -2.1467    2.0596   -2.6019 C.ar      1 <0>         0.0528
     20 C15        -2.8522    2.1262   -4.9893 C.2       1 <0>         0.4899
     21 O3         -2.9295    2.7385   -6.0358 O.co2     1 <0>        -0.6130
     22 F1         -1.8246    4.7520   -5.0485 F         1 <0>        -0.1090
     23 S2          2.6077    5.1044    1.5671 S.o2      1 <0>         2.4859
     24 O4          3.6257    5.8318    0.8934 O.2       1 <0>        -0.8643
     25 O5          1.2779    5.6023    1.6233 O.2       1 <0>        -0.8527
     26 C16         3.1695    4.6345    3.2266 C.3       1 <0>        -0.0248
     27 F2          4.4056    3.9858    3.1342 F         1 <0>        -0.1597
     28 F3          3.3028    5.7817    4.0161 F         1 <0>        -0.1625
     29 F4          2.2335    3.7735    3.8095 F         1 <0>        -0.1541
     30 H1          2.6967   -2.5796   -2.0395 H         1 <0>         0.0633
     31 H2          2.1638   -1.7007   -3.4927 H         1 <0>         0.0685
     32 H3          3.8539   -2.2403   -3.3487 H         1 <0>         0.0773
     33 H4          3.6537    0.1894   -2.8960 H         1 <0>         0.0703
     34 H5          4.1866   -0.6895   -1.4427 H         1 <0>         0.0686
     35 H6          1.3680   -0.5172   -1.3951 H         1 <0>         0.4059
     36 H7          4.3338    1.5348   -1.2547 H         1 <0>         0.1434
     37 H8          4.4985    3.6566   -0.0186 H         1 <0>         0.1498
     38 H9          0.4432    3.2590    1.2408 H         1 <0>         0.1870
     39 H10         0.0021   -0.0041    0.0020 H         1 <0>         0.4239
     40 H11        -0.6413    4.4164   -0.7180 H         1 <0>         0.1470
     41 H12        -0.7838    5.6602   -2.8336 H         1 <0>         0.1444
     42 H13        -2.5274    1.0513   -2.5323 H         1 <0>         0.1566
     43 O6         -3.3278    0.8683   -4.9081 O.co2     1 <0>        -0.7434
@<TRIPOS>BOND
     1    1    2 1
     2    1   30 1
     3    1   31 1
     4    1   32 1
     5    2    3 1
     6    2   33 1
     7    2   34 1
     8    3    4 1
     9    3   35 1
    10    4    9 ar
    11    4    5 ar
    12    5    6 ar
    13    5   36 1
    14    6    7 ar
    15    6   37 1
    16    7    8 ar
    17    7   23 1
    18    8    9 ar
    19    8   38 1
    20    9   10 1
    21   10   11 1
    22   10   39 1
    23   11   12 2
    24   11   13 2
    25   11   14 1
    26   14   19 ar
    27   14   15 ar
    28   15   16 ar
    29   15   40 1
    30   16   17 ar
    31   16   41 1
    32   17   18 ar
    33   17   22 1
    34   18   19 ar
    35   18   20 1
    36   19   42 1
    37   20   21 2
    38   20   43 1
    39   23   24 2
    40   23   25 2
    41   23   26 1
    42   26   27 1
    43   26   28 1
    44   26   29 1
@<TRIPOS>MOLECULE
ZINC24705279
   56    59     0     0     0
SMALL
USER_CHARGES
N'-[2-[3-(4-ethoxyphenyl)-5-thioxo-1H-1,2,4-triazol-4-yl]acetyl]-5,6,7,8-tetrahydro-4H-cyclohepta[d]thiophene-2-carbohydrazide
@<TRIPOS>ATOM
      1 C1         -8.3197   -0.5461    8.0104 C.3       1 <0>        -0.1532
      2 C2         -8.2999   -0.1483    6.5332 C.3       1 <0>         0.0512
      3 O1         -9.4113    0.7057    6.2549 O.3       1 <0>        -0.3158
      4 C3         -9.5415    1.1524    4.9785 C.ar      1 <0>         0.1273
      5 C4        -10.5997    1.9858    4.6409 C.ar      1 <0>        -0.1459
      6 C5        -10.7351    2.4410    3.3467 C.ar      1 <0>        -0.0446
      7 C6         -9.8072    2.0629    2.3753 C.ar      1 <0>        -0.0255
      8 C7         -8.7486    1.2202    2.7170 C.ar      1 <0>        -0.0812
      9 C8         -8.6162    0.7740    4.0145 C.ar      1 <0>        -0.2018
     10 C9         -9.9490    2.5492    0.9854 C.2       1 <0>         0.2117
     11 N1        -10.6160    3.6057    0.6127 N.2       1 <0>        -0.3061
     12 N2        -10.5101    3.7165   -0.7804 N.2       1 <0>        -0.3764
     13 C10        -9.7506    2.6891   -1.2128 C.2       1 <0>         0.4011
     14 S1         -9.3171    2.3663   -2.8372 S.3       1 <0>        -0.7687
     15 N3         -9.3941    1.9627   -0.1348 N.pl3     1 <0>        -0.4854
     16 C11        -8.5654    0.7546   -0.1497 C.3       1 <0>         0.1011
     17 C12        -7.1122    1.1411   -0.0512 C.2       1 <0>         0.5066
     18 O2         -6.7994    2.3105    0.0240 O.2       1 <0>        -0.5116
     19 N4         -6.1600    0.1872   -0.0468 N.am      1 <0>        -0.5337
     20 N5         -4.8090    0.5465    0.0448 N.am      1 <0>        -0.5208
     21 C13        -3.8568   -0.4073    0.0492 C.2       1 <0>         0.6072
     22 O3         -4.1707   -1.5808   -0.0263 O.2       1 <0>        -0.5373
     23 C14        -2.4432   -0.0314    0.1450 C.2       1 <0>        -0.2331
     24 C15        -1.3235   -0.8433    0.1657 C.2       1 <0>        -0.0599
     25 C16        -0.0761   -0.2376    0.2702 C.2       1 <0>        -0.1404
     26 C17        -0.0648    1.1139    0.3153 C.2       1 <0>        -0.1566
     27 S2         -1.7151    1.5949    0.2656 S.3       1 <0>         0.1497
     28 C18         1.1596    2.0002    0.3767 C.3       1 <0>        -0.0417
     29 C19         1.8187    1.7704    1.7472 C.3       1 <0>        -0.1090
     30 C20         2.6239    0.4927    1.7363 C.3       1 <0>        -0.1200
     31 C21         1.8402   -0.7949    1.7225 C.3       1 <0>        -0.1185
     32 C22         1.2101   -1.0661    0.3549 C.3       1 <0>        -0.0568
     33 H1         -7.4641   -1.2035    8.2246 H         1 <0>         0.0774
     34 H2         -9.2561   -1.0782    8.2343 H         1 <0>         0.0665
     35 H3         -8.2531    0.3574    8.6343 H         1 <0>         0.0662
     36 H4         -7.3635    0.3838    6.3093 H         1 <0>         0.0618
     37 H5         -8.3664   -1.0518    5.9092 H         1 <0>         0.0626
     38 H6        -11.3174    2.2779    5.3932 H         1 <0>         0.1350
     39 H7        -11.5583    3.0891    3.0849 H         1 <0>         0.1426
     40 H8         -8.0312    0.9219    1.9668 H         1 <0>         0.1211
     41 H9         -7.7945    0.1257    4.2808 H         1 <0>         0.1282
     42 H10        -8.8336    0.1155    0.7045 H         1 <0>         0.1178
     43 H11        -8.7358    0.2046   -1.0869 H         1 <0>         0.1359
     44 H12        -6.4436   -0.8734   -0.1151 H         1 <0>         0.4574
     45 H13        -4.5254    1.6071    0.1131 H         1 <0>         0.4552
     46 H14        -1.4154   -1.9175    0.1020 H         1 <0>         0.1439
     47 H15         1.8501    1.7284   -0.4353 H         1 <0>         0.0907
     48 H16         0.8571    3.0518    0.2641 H         1 <0>         0.0815
     49 H17         2.4869    2.6130    1.9786 H         1 <0>         0.0741
     50 H18         1.0401    1.6967    2.5208 H         1 <0>         0.0679
     51 H19         3.2597    0.4676    0.8390 H         1 <0>         0.0612
     52 H20         3.2565    0.4503    2.6352 H         1 <0>         0.0612
     53 H21         2.5089   -1.6338    1.9655 H         1 <0>         0.0671
     54 H22         1.0335   -0.7412    2.4683 H         1 <0>         0.0631
     55 H23         0.9664   -2.1334    0.2480 H         1 <0>         0.0746
     56 H24         1.8947   -0.7638   -0.4513 H         1 <0>         0.0753
@<TRIPOS>BOND
     1    1    2 1
     2    1   33 1
     3    1   34 1
     4    1   35 1
     5    2    3 1
     6    2   36 1
     7    2   37 1
     8    3    4 1
     9    4    9 ar
    10    4    5 ar
    11    5    6 ar
    12    5   38 1
    13    6    7 ar
    14    6   39 1
    15    7    8 ar
    16    7   10 1
    17    8    9 ar
    18    8   40 1
    19    9   41 1
    20   10   15 1
    21   10   11 2
    22   11   12 1
    23   12   13 2
    24   13   14 1
    25   13   15 1
    26   15   16 1
    27   16   17 1
    28   16   42 1
    29   16   43 1
    30   17   18 2
    31   17   19 am
    32   19   20 1
    33   19   44 1
    34   20   21 am
    35   20   45 1
    36   21   22 2
    37   21   23 1
    38   23   27 1
    39   23   24 2
    40   24   25 1
    41   24   46 1
    42   25   32 1
    43   25   26 2
    44   26   27 1
    45   26   28 1
    46   28   29 1
    47   28   47 1
    48   28   48 1
    49   29   30 1
    50   29   49 1
    51   29   50 1
    52   30   31 1
    53   30   51 1
    54   30   52 1
    55   31   32 1
    56   31   53 1
    57   31   54 1
    58   32   55 1
    59   32   56 1
@<TRIPOS>MOLECULE
ZINC02858535
   43    46     0     0     0
SMALL
USER_CHARGES

@<TRIPOS>ATOM
      1 C1          0.3906   -5.3830   -6.0108 C.ar      1 <0>        -0.1109
      2 C2          1.6104   -5.5127   -6.6588 C.ar      1 <0>        -0.0957
      3 C3          2.7803   -5.3757   -5.9338 C.ar      1 <0>        -0.0669
      4 C4          2.7169   -5.1143   -4.5882 C.ar      1 <0>        -0.1403
      5 C5          1.4931   -4.9759   -3.8947 C.ar      1 <0>         0.0854
      6 C6          0.3176   -5.1220   -4.6673 C.ar      1 <0>        -0.0591
      7 N1          1.5951   -4.7196   -2.5726 N.2       1 <0>        -0.4781
      8 C7          2.7543   -4.6050   -1.9635 C.2       1 <0>         0.1013
      9 S1          3.9135   -4.8677   -3.2982 S.3       1 <0>        -0.0029
     10 S2          3.0820   -4.2757   -0.2639 S.3       1 <0>         0.1877
     11 C8          4.8334   -4.4163   -0.1324 C.ar      1 <0>        -0.1879
     12 C9          5.6174   -3.2756   -0.0408 C.ar      1 <0>        -0.0517
     13 C10         6.9952   -3.3893    0.0625 C.ar      1 <0>         0.0793
     14 C11         7.5907   -4.6421    0.0744 C.ar      1 <0>        -0.0681
     15 C12         6.8129   -5.7815   -0.0171 C.ar      1 <0>        -0.1650
     16 C13         5.4341   -5.6749   -0.1144 C.ar      1 <0>         0.2222
     17 N2          4.6450   -6.8306   -0.2004 N.pl3     1 <0>        -1.0554
     18 S3          5.0818   -8.1951    0.6301 S.o2      1 <0>         2.6866
     19 O1          4.0305   -9.1340    0.4502 O.2       1 <0>        -0.9390
     20 O2          6.4263   -8.4781    0.2678 O.2       1 <0>        -0.9520
     21 C14         5.0984   -7.7798    2.3424 C.ar      1 <0>        -0.6901
     22 C15         6.2573   -7.2958    2.9242 C.ar      1 <0>        -0.0308
     23 C16         6.2796   -6.9671    4.2680 C.ar      1 <0>        -0.1555
     24 C17         5.1454   -7.1203    5.0379 C.ar      1 <0>        -0.0249
     25 C18         3.9720   -7.6082    4.4575 C.ar      1 <0>        -0.1498
     26 C19         3.9552   -7.9324    3.0983 C.ar      1 <0>         0.0203
     27 C20         2.7548   -7.7748    5.2744 C.2       1 <0>         0.5203
     28 O3          2.7713   -7.4856    6.4625 O.co2     1 <0>        -0.6826
     29 O4          1.7292   -8.2022    4.7634 O.co2     1 <0>        -0.6775
     30 O5          7.7641   -2.2711    0.1518 O.3       1 <0>        -0.4925
     31 H1         -0.5222   -5.4857   -6.5787 H         1 <0>         0.1353
     32 H2          1.6461   -5.7188   -7.7183 H         1 <0>         0.1390
     33 H3          3.7378   -5.4741   -6.4237 H         1 <0>         0.1334
     34 H4         -0.6482   -5.0266   -4.1934 H         1 <0>         0.1357
     35 H5          5.1549   -2.2997   -0.0503 H         1 <0>         0.1482
     36 H6          8.6643   -4.7276    0.1550 H         1 <0>         0.1461
     37 H7          7.2795   -6.7555   -0.0083 H         1 <0>         0.1767
     38 H8          3.8433   -6.8309   -0.7464 H         1 <0>         0.4267
     39 H9          7.1485   -7.1745    2.3264 H         1 <0>         0.1307
     40 H10         7.1874   -6.5901    4.7153 H         1 <0>         0.1270
     41 H11         5.1644   -6.8640    6.0869 H         1 <0>         0.1366
     42 H12         3.0503   -8.3056    2.6420 H         1 <0>         0.1456
     43 H13         7.9185   -1.9713    1.0581 H         1 <0>         0.3926
@<TRIPOS>BOND
     1    1    6 ar
     2    1    2 ar
     3    1   31 1
     4    2    3 ar
     5    2   32 1
     6    3    4 ar
     7    3   33 1
     8    4    9 1
     9    4    5 ar
    10    5    6 ar
    11    5    7 1
    12    6   34 1
    13    7    8 2
    14    8    9 1
    15    8   10 1
    16   10   11 1
    17   11   16 ar
    18   11   12 ar
    19   12   13 ar
    20   12   35 1
    21   13   14 ar
    22   13   30 1
    23   14   15 ar
    24   14   36 1
    25   15   16 ar
    26   15   37 1
    27   16   17 1
    28   17   18 1
    29   17   38 1
    30   18   19 2
    31   18   20 2
    32   18   21 1
    33   21   26 ar
    34   21   22 ar
    35   22   23 ar
    36   22   39 1
    37   23   24 ar
    38   23   40 1
    39   24   25 ar
    40   24   41 1
    41   25   26 ar
    42   25   27 1
    43   26   42 1
    44   27   28 2
    45   27   29 1
    46   30   43 1
@<TRIPOS>MOLECULE
ZINC44389261
   60    63     0     0     0
SMALL
USER_CHARGES

@<TRIPOS>ATOM
      1 C1         -0.0187    1.5258    0.0104 C.3       1 <0>        -0.1383
      2 C2          0.0021   -0.0041    0.0020 C.3       1 <0>        -0.0632
      3 C3         -1.4117   -0.5257    0.0127 C.ar      1 <0>         0.1911
      4 C4         -1.8385   -1.4087   -0.9617 C.ar      1 <0>        -0.3389
      5 C5         -3.1544   -1.8665   -0.9135 C.ar      1 <0>         0.4632
      6 O1         -3.6153   -2.7331   -1.8478 O.3       1 <0>        -0.6928
      7 N1         -3.9494   -1.4415    0.0611 N.ar      1 <0>        -0.6437
      8 C6         -3.5030   -0.5957    0.9755 C.ar      1 <0>         0.5760
      9 N2         -2.2578   -0.1477    0.9587 N.ar      1 <0>        -0.5824
     10 N3         -4.3647   -0.1694    1.9847 N.pl3     1 <0>        -0.3158
     11 C7         -5.6646   -0.5459    2.1432 C.2       1 <0>         0.3564
     12 C8         -6.1428    0.0944    3.2443 C.2       1 <0>        -0.2809
     13 C9         -5.1097    0.8784    3.7676 C.2       1 <0>         0.0920
     14 N4         -4.0476    0.7180    3.0212 N.2       1 <0>        -0.2478
     15 C10        -5.2027    1.7556    4.9895 C.3       1 <0>         0.0176
     16 C11        -5.1841    0.8831    6.2462 C.3       1 <0>        -0.1352
     17 C12        -4.0131    2.7173    5.0186 C.3       1 <0>        -0.1354
     18 C13        -6.5053    2.5569    4.9442 C.3       1 <0>        -0.1357
     19 N5         -6.3744   -1.4249    1.3267 N.am      1 <0>        -0.6481
     20 C14        -7.6626   -1.7095    1.6024 C.2       1 <0>         0.7129
     21 O2         -8.2056   -1.1995    2.5633 O.2       1 <0>        -0.5730
     22 N6         -8.3488   -2.5594    0.8130 N.am      1 <0>        -0.7363
     23 C15        -9.7491   -2.8687    1.1126 C.3       1 <0>         0.1826
     24 C16       -10.2805   -3.8361    0.0866 C.ar      1 <0>        -0.0960
     25 C17       -11.0370   -3.3854   -0.9515 C.ar      1 <0>        -0.0907
     26 C18       -11.5370   -4.2647   -1.9096 C.ar      1 <0>        -0.1189
     27 C19       -11.2840   -5.6002   -1.8353 C.ar      1 <0>        -0.0976
     28 C20       -10.5069   -6.1026   -0.7780 C.ar      1 <0>        -0.0543
     29 C21        -9.9930   -5.2073    0.1933 C.ar      1 <0>        -0.0354
     30 C22        -9.2108   -5.7093    1.2476 C.ar      1 <0>        -0.1044
     31 C23        -8.9530   -7.0436    1.3185 C.ar      1 <0>        -0.1129
     32 C24        -9.4529   -7.9232    0.3598 C.ar      1 <0>        -0.1149
     33 C25       -10.2249   -7.4751   -0.6675 C.ar      1 <0>        -0.1074
     34 H1          1.0039    1.9031    0.0027 H         1 <0>         0.0499
     35 H2         -0.5459    1.8868   -0.8726 H         1 <0>         0.0479
     36 H3         -0.5289    1.8773    0.9072 H         1 <0>         0.0669
     37 H4          0.5123   -0.3556   -0.8948 H         1 <0>         0.0724
     38 H5          0.5293   -0.3651    0.8851 H         1 <0>         0.0751
     39 H6         -1.1680   -1.7361   -1.7425 H         1 <0>         0.1200
     40 H7         -7.1430    0.0122    3.6431 H         1 <0>         0.1766
     41 H8         -4.2561    0.3123    6.2785 H         1 <0>         0.0559
     42 H9         -5.2513    1.5176    7.1300 H         1 <0>         0.0593
     43 H10        -6.0316    0.1980    6.2255 H         1 <0>         0.0602
     44 H11        -4.0264    3.3388    4.1233 H         1 <0>         0.0565
     45 H12        -4.0803    3.3517    5.9024 H         1 <0>         0.0535
     46 H13        -3.0851    2.1464    5.0509 H         1 <0>         0.0626
     47 H14        -7.3528    1.8717    4.9234 H         1 <0>         0.0628
     48 H15        -6.5726    3.1913    5.8279 H         1 <0>         0.0583
     49 H16        -6.5186    3.1784    4.0488 H         1 <0>         0.0558
     50 H17        -5.9412   -1.8318    0.5601 H         1 <0>         0.4320
     51 H18        -7.9156   -2.9662    0.0464 H         1 <0>         0.4043
     52 H19        -9.8182   -3.3163    2.1041 H         1 <0>         0.0787
     53 H20       -10.3375   -1.9515    1.0863 H         1 <0>         0.0792
     54 H21       -11.2531   -2.3304   -1.0334 H         1 <0>         0.1270
     55 H22       -12.1346   -3.8811   -2.7233 H         1 <0>         0.1251
     56 H23       -11.6787   -6.2701   -2.5848 H         1 <0>         0.1270
     57 H24        -8.8162   -5.0396    1.9974 H         1 <0>         0.1297
     58 H25        -8.3517   -7.4268    2.1297 H         1 <0>         0.1232
     59 H26        -9.2331   -8.9776    0.4393 H         1 <0>         0.1223
     60 H27       -10.6061   -8.1685   -1.4026 H         1 <0>         0.1261
@<TRIPOS>BOND
     1    1    2 1
     2    1   34 1
     3    1   35 1
     4    1   36 1
     5    2    3 1
     6    2   37 1
     7    2   38 1
     8    3    9 ar
     9    3    4 ar
    10    4    5 ar
    11    4   39 1
    12    5    6 1
    13    5    7 ar
    14    7    8 ar
    15    8    9 ar
    16    8   10 1
    17   10   14 1
    18   10   11 1
    19   11   12 2
    20   11   19 1
    21   12   13 1
    22   12   40 1
    23   13   14 2
    24   13   15 1
    25   15   16 1
    26   15   17 1
    27   15   18 1
    28   16   41 1
    29   16   42 1
    30   16   43 1
    31   17   44 1
    32   17   45 1
    33   17   46 1
    34   18   47 1
    35   18   48 1
    36   18   49 1
    37   19   20 am
    38   19   50 1
    39   20   21 2
    40   20   22 am
    41   22   23 1
    42   22   51 1
    43   23   24 1
    44   23   52 1
    45   23   53 1
    46   24   29 ar
    47   24   25 ar
    48   25   26 ar
    49   25   54 1
    50   26   27 ar
    51   26   55 1
    52   27   28 ar
    53   27   56 1
    54   28   33 ar
    55   28   29 ar
    56   29   30 ar
    57   30   31 ar
    58   30   57 1
    59   31   32 ar
    60   31   58 1
    61   32   33 ar
    62   32   59 1
    63   33   60 1
@<TRIPOS>MOLECULE
ZINC59941922
   45    47     0     0     0
SMALL
USER_CHARGES

@<TRIPOS>ATOM
      1 C1          0.0371    1.3496   -0.0477 C.ar      1 <0>        -0.1439
      2 C2          1.2244    2.0577   -0.0488 C.ar      1 <0>        -0.1319
      3 C3          2.4312    1.3835   -0.0528 C.ar      1 <0>        -0.1130
      4 C4          2.4507    0.0013   -0.0552 C.ar      1 <0>        -0.0481
      5 C5          1.2635   -0.7067   -0.0531 C.ar      1 <0>        -0.1095
      6 C6          0.0567   -0.0326   -0.0505 C.ar      1 <0>        -0.1306
      7 C7          3.7663   -0.7337   -0.0605 C.3       1 <0>         0.0302
      8 C8          4.2093   -0.9810    1.3585 C.2       1 <0>        -0.4408
      9 C9          4.9179   -0.0021    2.0652 C.2       1 <0>         0.5313
     10 O1          5.1877    1.0677    1.5428 O.2       1 <0>        -0.5949
     11 N1          5.2972   -0.2615    3.3341 N.am      1 <0>        -0.6327
     12 C10         4.9903   -1.4584    3.9070 C.2       1 <0>         0.3560
     13 N2          4.3239   -2.3833    3.2459 N.2       1 <0>        -0.5673
     14 C11         3.9181   -2.1788    1.9897 C.2       1 <0>         0.4584
     15 O2          3.2292   -3.1416    1.3338 O.3       1 <0>        -0.6690
     16 S1          5.4949   -1.7768    5.5649 S.3       1 <0>         0.0226
     17 C12         4.8823   -3.4518    5.8961 C.3       1 <0>        -0.1351
     18 C13         5.2516   -3.8531    7.3009 C.2       1 <0>         0.5432
     19 O3          5.8675   -3.0848    8.0090 O.2       1 <0>        -0.4945
     20 N3          4.8975   -5.0658    7.7705 N.am      1 <0>        -0.6715
     21 C14         5.3385   -5.4841    9.0308 C.ar      1 <0>         0.2085
     22 C15         6.4989   -4.9490    9.5751 C.ar      1 <0>        -0.1349
     23 C16         6.9315   -5.3640   10.8191 C.ar      1 <0>        -0.0635
     24 C17         6.2108   -6.3117   11.5228 C.ar      1 <0>        -0.1426
     25 C18         5.0555   -6.8466   10.9836 C.ar      1 <0>        -0.0516
     26 C19         4.6139   -6.4309    9.7425 C.ar      1 <0>        -0.2207
     27 C20         3.3506   -7.0091    9.1588 C.3       1 <0>         0.5079
     28 F1          2.8039   -7.9343   10.0545 F         1 <0>        -0.1737
     29 F2          2.4296   -5.9813    8.9299 F         1 <0>        -0.1724
     30 F3          3.6457   -7.6487    7.9500 F         1 <0>        -0.1771
     31 H1         -0.9057    1.8763   -0.0400 H         1 <0>         0.1090
     32 H2          1.2091    3.1376   -0.0470 H         1 <0>         0.1103
     33 H3          3.3588    1.9367   -0.0544 H         1 <0>         0.1230
     34 H4          1.2787   -1.7866   -0.0553 H         1 <0>         0.1251
     35 H5         -0.8709   -0.5857   -0.0493 H         1 <0>         0.1110
     36 H6          3.6479   -1.6870   -0.5756 H         1 <0>         0.0685
     37 H7          4.5160   -0.1331   -0.5757 H         1 <0>         0.0542
     38 H8          5.7891    0.4051    3.8386 H         1 <0>         0.3988
     39 H9          3.7980   -3.4705    5.7861 H         1 <0>         0.1348
     40 H10         5.3313   -4.1493    5.1890 H         1 <0>         0.1364
     41 H11         4.3370   -5.6486    7.2347 H         1 <0>         0.4176
     42 H12         7.0626   -4.2095    9.0257 H         1 <0>         0.1593
     43 H13         7.8338   -4.9483   11.2428 H         1 <0>         0.1369
     44 H14         6.5514   -6.6349   12.4954 H         1 <0>         0.1353
     45 H15         4.4951   -7.5868   11.5355 H         1 <0>         0.1414
@<TRIPOS>BOND
     1    1    6 ar
     2    1    2 ar
     3    1   31 1
     4    2    3 ar
     5    2   32 1
     6    3    4 ar
     7    3   33 1
     8    4    5 ar
     9    4    7 1
    10    5    6 ar
    11    5   34 1
    12    6   35 1
    13    7   36 1
    14    7   37 1
    15    7    8 1
    16    8    9 1
    17    8   14 2
    18    9   10 2
    19    9   11 am
    20   11   12 1
    21   11   38 1
    22   12   13 2
    23   12   16 1
    24   13   14 1
    25   14   15 1
    26   16   17 1
    27   17   18 1
    28   17   39 1
    29   17   40 1
    30   18   19 2
    31   18   20 am
    32   20   21 1
    33   20   41 1
    34   21   26 ar
    35   21   22 ar
    36   22   23 ar
    37   22   42 1
    38   23   24 ar
    39   23   43 1
    40   24   25 ar
    41   24   44 1
    42   25   26 ar
    43   25   45 1
    44   26   27 1
    45   27   28 1
    46   27   29 1
    47   27   30 1
@<TRIPOS>MOLECULE
ZINC19636820
   60    64     0     0     0
SMALL
USER_CHARGES
(1R,4S,5S,6S)-6-[[(6S)-3-(cyclopentylcarbamoyl)-6-methyl-4,5,6,7-tetrahydrobenzothiophen-2-yl]carbamoyl]bicyclo[2.2.1]hept-2-ene-5-carboxylic acid
@<TRIPOS>ATOM
      1 C1          6.4764    5.3341   -0.1221 C.3       1 <0>        -0.1476
      2 C2          5.4856    4.2033   -0.4059 C.3       1 <0>        -0.0880
      3 H1          5.5194    3.9588   -1.4778 H         1 <0>         0.0750
      4 C3          5.8632    2.9705    0.4204 C.3       1 <0>        -0.1108
      5 C4          5.0376    1.7660   -0.0353 C.3       1 <0>        -0.0596
      6 C5          3.5627    2.1484   -0.0198 C.2       1 <0>        -0.0556
      7 C6          3.1801    3.4438   -0.0090 C.2       1 <0>        -0.2290
      8 S1          1.4105    3.3927    0.0074 S.3       1 <0>         0.2111
      9 C7          1.1802    1.6754   -0.0002 C.2       1 <0>         0.1060
     10 C8          2.4774    1.1825   -0.0096 C.2       1 <0>        -0.2470
     11 C9          2.7428   -0.2595   -0.0128 C.2       1 <0>         0.5836
     12 O1          2.8462   -0.8569   -1.0681 O.2       1 <0>        -0.5348
     13 N1          2.8722   -0.9234    1.1529 N.am      1 <0>        -0.7327
     14 C10         3.1374   -2.3642    1.1497 C.3       1 <0>         0.1376
     15 C11         1.8091   -3.1459    1.0839 C.3       1 <0>        -0.1396
     16 C12         2.0501   -4.3799    1.9898 C.3       1 <0>        -0.1240
     17 C13         2.8929   -3.7939    3.1497 C.3       1 <0>        -0.1178
     18 C14         3.8266   -2.7763    2.4624 C.3       1 <0>        -0.1222
     19 N2         -0.0111    0.9658    0.0074 N.am      1 <0>        -0.6361
     20 C15        -1.1873    1.6238    0.0165 C.2       1 <0>         0.5200
     21 O2         -1.2037    2.8364    0.0232 O.2       1 <0>        -0.5055
     22 C16        -2.4820    0.8526    0.0185 C.3       1 <0>        -0.0905
     23 H2         -2.4363    0.2328    0.9261 H         1 <0>         0.1221
     24 C17        -3.7018    1.8274   -0.0237 C.3       1 <0>        -0.0500
     25 H3         -3.9283    2.3464    0.9194 H         1 <0>         0.1010
     26 C18        -4.7878    0.8922   -0.6752 C.3       1 <0>        -0.1099
     27 C19        -3.9125    0.6049   -1.9497 C.3       1 <0>        -0.0282
     28 H4         -4.3333    0.0055   -2.7704 H         1 <0>         0.1072
     29 C20        -2.6247    0.0252   -1.2825 C.3       1 <0>        -0.1235
     30 H5         -1.7319    0.0620   -1.9241 H         1 <0>         0.0782
     31 C21        -2.8054   -1.4365   -0.9635 C.2       1 <0>         0.4677
     32 O3         -2.8220   -1.8063    0.1866 O.co2     1 <0>        -0.6371
     33 O4         -2.9480   -2.3276   -1.9571 O.co2     1 <0>        -0.7582
     34 C22        -3.5234    2.0393   -2.3278 C.2       1 <0>        -0.1942
     35 C23        -3.4019    2.7436   -1.2204 C.2       1 <0>        -0.1534
     36 C24         4.0698    4.6485   -0.0116 C.3       1 <0>        -0.0244
     37 H6          7.4898    5.0133   -0.4052 H         1 <0>         0.0561
     38 H7          6.4555    5.5794    0.9500 H         1 <0>         0.0556
     39 H8          6.1962    6.2225   -0.7071 H         1 <0>         0.0562
     40 H9          6.9322    2.7506    0.2833 H         1 <0>         0.0663
     41 H10         5.6627    3.1665    1.4841 H         1 <0>         0.0656
     42 H11         5.3381    1.4798   -1.0540 H         1 <0>         0.0755
     43 H12         5.2114    0.9223    0.6488 H         1 <0>         0.0710
     44 H13         2.7787   -0.3835    2.1067 H         1 <0>         0.4152
     45 H14         3.7740   -2.5381    0.2697 H         1 <0>         0.0876
     46 H15         0.9917   -2.5120    1.4582 H         1 <0>         0.0733
     47 H16         1.6034   -3.4322    0.0419 H         1 <0>         0.0726
     48 H17         1.0832   -4.7810    2.3279 H         1 <0>         0.0707
     49 H18         2.5889   -5.1524    1.4215 H         1 <0>         0.0668
     50 H19         2.2262   -3.3139    3.8812 H         1 <0>         0.0677
     51 H20         3.4539   -4.6029    3.6405 H         1 <0>         0.0655
     52 H21         4.8031   -3.2299    2.2371 H         1 <0>         0.0719
     53 H22         3.9720   -1.8881    3.0948 H         1 <0>         0.0702
     54 H23         0.0039   -0.1341    0.0060 H         1 <0>         0.4513
     55 H24        -4.9862    0.0405   -0.0079 H         1 <0>         0.0805
     56 H25        -5.7165    1.4610   -0.8297 H         1 <0>         0.0723
     57 H26        -3.3486    2.5150   -3.3041 H         1 <0>         0.1208
     58 H27        -3.1257    3.8071   -1.2725 H         1 <0>         0.1230
     59 H28         4.0936    5.1013    0.9906 H         1 <0>         0.0782
     60 H29         3.7017    5.3870   -0.7390 H         1 <0>         0.0761
@<TRIPOS>BOND
     1    1    2 1
     2    1   37 1
     3    1   38 1
     4    1   39 1
     5    2    3 1
     6    2   36 1
     7    2    4 1
     8    4    5 1
     9    4   40 1
    10    4   41 1
    11    5    6 1
    12    5   42 1
    13    5   43 1
    14    6   10 1
    15    6    7 2
    16    7    8 1
    17    7   36 1
    18    8    9 1
    19    9   10 2
    20    9   19 1
    21   10   11 1
    22   11   12 2
    23   11   13 am
    24   13   14 1
    25   13   44 1
    26   14   18 1
    27   14   15 1
    28   14   45 1
    29   15   16 1
    30   15   46 1
    31   15   47 1
    32   16   17 1
    33   16   48 1
    34   16   49 1
    35   17   18 1
    36   17   50 1
    37   17   51 1
    38   18   52 1
    39   18   53 1
    40   19   20 am
    41   19   54 1
    42   20   21 2
    43   20   22 1
    44   22   23 1
    45   22   29 1
    46   22   24 1
    47   24   25 1
    48   24   35 1
    49   24   26 1
    50   26   27 1
    51   26   55 1
    52   26   56 1
    53   27   28 1
    54   27   29 1
    55   27   34 1
    56   29   30 1
    57   29   31 1
    58   31   32 2
    59   31   33 1
    60   34   35 2
    61   34   57 1
    62   35   58 1
    63   36   59 1
    64   36   60 1
@<TRIPOS>MOLECULE
ZINC13548863
   49    52     0     0     0
SMALL
USER_CHARGES

@<TRIPOS>ATOM
      1 C1         -0.0445    1.3276    0.0080 C.ar      1 <0>        -0.0784
      2 C2          1.1410    2.0385   -0.0075 C.ar      1 <0>        -0.1461
      3 C3          2.3493    1.3673   -0.0224 C.ar      1 <0>        -0.0219
      4 C4          2.3723   -0.0149   -0.0214 C.ar      1 <0>        -0.6294
      5 C5          1.1868   -0.7258   -0.0050 C.ar      1 <0>        -0.0219
      6 C6         -0.0215   -0.0546    0.0085 C.ar      1 <0>        -0.1461
      7 S1          3.9125   -0.8705   -0.0416 S.o2      1 <0>         2.6431
      8 O1          3.6553   -2.1569   -0.5878 O.2       1 <0>        -0.9988
      9 O2          4.8646    0.0205   -0.6063 O.2       1 <0>        -0.9987
     10 N1          4.3620   -1.1067    1.5346 N.2       1 <0>        -1.0151
     11 C7          5.5408   -1.7589    1.8245 C.2       1 <0>         0.5080
     12 N2          6.4343   -2.2556    0.9965 N.2       1 <0>        -0.6634
     13 C8          7.5532   -2.8735    1.4226 C.ar      1 <0>         0.2144
     14 C9          8.5847   -3.4469    0.6379 C.ar      1 <0>        -0.1302
     15 C10         9.6574   -4.0393    1.2177 C.ar      1 <0>        -0.0565
     16 C11         9.7901   -4.1095    2.6116 C.ar      1 <0>        -0.2064
     17 C12         8.7900   -3.5534    3.4170 C.ar      1 <0>         0.0402
     18 C13         7.7102   -2.9566    2.8279 C.ar      1 <0>        -0.2167
     19 S2          6.2487   -2.1385    3.4212 S.3       1 <0>        -0.0570
     20 C14        10.9653   -4.7598    3.2197 C.2       1 <0>         0.5771
     21 O3         11.0711   -4.8155    4.4300 O.2       1 <0>        -0.5306
     22 N3         11.9224   -5.2924    2.4344 N.am      1 <0>        -0.6764
     23 C15        13.0825   -5.8225    3.0078 C.ar      1 <0>         0.1550
     24 C16        14.3017   -5.6968    2.3545 C.ar      1 <0>        -0.1463
     25 C17        15.4457   -6.2210    2.9237 C.ar      1 <0>        -0.0958
     26 C18        15.3781   -6.8705    4.1426 C.ar      1 <0>        -0.1080
     27 C19        14.1657   -6.9978    4.7955 C.ar      1 <0>        -0.0955
     28 C20        13.0190   -6.4708    4.2344 C.ar      1 <0>        -0.1190
     29 C21        16.6284   -7.4413    4.7607 C.3       1 <0>        -0.0751
     30 C22        17.2866   -6.3838    5.6493 C.3       1 <0>         0.0792
     31 O4         18.4722   -6.9251    6.2354 O.3       1 <0>        -0.5777
     32 H1         -0.9884    1.8520    0.0241 H         1 <0>         0.1253
     33 H2          1.1231    3.1183   -0.0083 H         1 <0>         0.1282
     34 H3          3.2755    1.9227   -0.0352 H         1 <0>         0.1379
     35 H4          1.2048   -1.8057   -0.0046 H         1 <0>         0.1379
     36 H5         -0.9477   -0.6100    0.0209 H         1 <0>         0.1282
     37 H6          8.5149   -3.4115   -0.4392 H         1 <0>         0.1274
     38 H7         10.4267   -4.4670    0.5918 H         1 <0>         0.1187
     39 H8          8.8702   -3.5953    4.4932 H         1 <0>         0.1330
     40 H9         11.8065   -5.3081    1.4715 H         1 <0>         0.4108
     41 H10        14.3551   -5.1900    1.4023 H         1 <0>         0.1262
     42 H11        16.3940   -6.1239    2.4160 H         1 <0>         0.1240
     43 H12        14.1162   -7.5062    5.7470 H         1 <0>         0.1239
     44 H13        12.0732   -6.5663    4.7471 H         1 <0>         0.1422
     45 H14        16.3709   -8.3126    5.3629 H         1 <0>         0.0775
     46 H15        17.3213   -7.7361    3.9727 H         1 <0>         0.0770
     47 H16        17.5441   -5.5125    5.0472 H         1 <0>         0.0473
     48 H17        16.5937   -6.0890    6.4373 H         1 <0>         0.0482
     49 H18        18.9424   -6.3082    6.8128 H         1 <0>         0.3803
@<TRIPOS>BOND
     1    1    6 ar
     2    1    2 ar
     3    1   32 1
     4    2    3 ar
     5    2   33 1
     6    3    4 ar
     7    3   34 1
     8    4    5 ar
     9    4    7 1
    10    5    6 ar
    11    5   35 1
    12    6   36 1
    13    7    8 2
    14    7    9 2
    15    7   10 1
    16   10   11 1
    17   11   19 1
    18   11   12 2
    19   12   13 1
    20   13   18 ar
    21   13   14 ar
    22   14   15 ar
    23   14   37 1
    24   15   16 ar
    25   15   38 1
    26   16   17 ar
    27   16   20 1
    28   17   18 ar
    29   17   39 1
    30   18   19 1
    31   20   21 2
    32   20   22 am
    33   22   23 1
    34   22   40 1
    35   23   28 ar
    36   23   24 ar
    37   24   25 ar
    38   24   41 1
    39   25   26 ar
    40   25   42 1
    41   26   27 ar
    42   26   29 1
    43   27   28 ar
    44   27   43 1
    45   28   44 1
    46   29   30 1
    47   29   45 1
    48   29   46 1
    49   30   31 1
    50   30   47 1
    51   30   48 1
    52   31   49 1
@<TRIPOS>MOLECULE
ZINC40287338
   48    51     0     0     0
SMALL
USER_CHARGES

@<TRIPOS>ATOM
      1 C1          0.9707    1.4715    1.0932 C.ar      1 <0>        -0.1405
      2 C2          1.0996    2.1560   -0.1014 C.ar      1 <0>        -0.0718
      3 C3          1.2696    1.4603   -1.2825 C.ar      1 <0>        -0.1922
      4 C4          1.3115    0.0734   -1.2695 C.ar      1 <0>         0.1308
      5 C5          1.1824   -0.6108   -0.0698 C.ar      1 <0>        -0.1075
      6 C6          1.0120    0.0898    1.1088 C.ar      1 <0>        -0.0628
      7 C7          1.2268   -2.1170   -0.0521 C.3       1 <0>         0.2620
      8 H1          2.0120   -2.4727   -0.7194 H         1 <0>         0.1171
      9 C8          1.4846   -2.6067    1.3509 C.2       1 <0>        -0.0303
     10 C9          0.5590   -3.2134    2.1245 C.2       1 <0>         0.0230
     11 N1          1.1322   -3.5040    3.2966 N.2       1 <0>        -0.4852
     12 C10         2.3767   -3.1037    3.2776 C.2       1 <0>         0.1850
     13 N2          2.6337   -2.5381    2.0753 N.pl3     1 <0>        -0.5500
     14 H2          3.4771   -2.1567    1.7853 H         1 <0>         0.4234
     15 C11        -0.8583   -3.4967    1.6931 C.3       1 <0>        -0.0518
     16 C12        -1.1930   -2.6159    0.4831 C.3       1 <0>         0.1300
     17 N3         -0.0762   -2.6627   -0.4745 N.am      1 <0>        -0.6135
     18 C13        -0.2387   -3.1912   -1.7037 C.2       1 <0>         0.7113
     19 O1         -1.3411   -3.5497   -2.0703 O.2       1 <0>        -0.5803
     20 N4          0.8207   -3.3221   -2.5264 N.am      1 <0>        -0.6469
     21 C14         0.6351   -3.7513   -3.8369 C.ar      1 <0>         0.2028
     22 C15        -0.5838   -3.5501   -4.4713 C.ar      1 <0>        -0.1559
     23 C16        -0.7658   -3.9765   -5.7710 C.ar      1 <0>        -0.1045
     24 C17         0.2624   -4.6080   -6.4536 C.ar      1 <0>        -0.1657
     25 C18         1.4783   -4.8172   -5.8419 C.ar      1 <0>        -0.0637
     26 C19         1.6812   -4.3850   -4.5271 C.ar      1 <0>        -0.1754
     27 C20         2.9798   -4.5987   -3.8694 C.2       1 <0>         0.5302
     28 O2          3.9182   -5.0608   -4.5040 O.co2     1 <0>        -0.6798
     29 O3          3.1212   -4.3143   -2.6879 O.co2     1 <0>        -0.6935
     30 O4          1.4782   -0.6134   -2.4303 O.3       1 <0>        -0.2993
     31 C21         1.6038    0.1567   -3.6274 C.3       1 <0>         0.6024
     32 F1          2.7165    0.9987   -3.5257 F         1 <0>        -0.1672
     33 F2          1.7674   -0.7023   -4.7195 F         1 <0>        -0.1175
     34 F3          0.4507    0.9277   -3.8091 F         1 <0>        -0.1669
     35 H3          0.8420    2.0174    2.0161 H         1 <0>         0.1306
     36 H4          1.0670    3.2354   -0.1110 H         1 <0>         0.1328
     37 H5          1.3696    1.9953   -2.2153 H         1 <0>         0.1353
     38 H6          0.9110   -0.4425    2.0431 H         1 <0>         0.1362
     39 H7          3.0831   -3.2070    4.0880 H         1 <0>         0.2104
     40 H8         -0.9531   -4.5471    1.4177 H         1 <0>         0.0822
     41 H9         -1.5416   -3.2686    2.5112 H         1 <0>         0.0899
     42 H10        -2.0993   -2.9854    0.0033 H         1 <0>         0.1055
     43 H11        -1.3473   -1.5883    0.8123 H         1 <0>         0.0703
     44 H12         1.7127   -3.1172   -2.2049 H         1 <0>         0.4224
     45 H13        -1.3904   -3.0597   -3.9466 H         1 <0>         0.1379
     46 H14        -1.7157   -3.8176   -6.2596 H         1 <0>         0.1130
     47 H15         0.1088   -4.9380   -7.4704 H         1 <0>         0.1119
     48 H16         2.2757   -5.3100   -6.3783 H         1 <0>         0.1261
@<TRIPOS>BOND
     1    1    6 ar
     2    1    2 ar
     3    1   35 1
     4    2    3 ar
     5    2   36 1
     6    3    4 ar
     7    3   37 1
     8    4    5 ar
     9    4   30 1
    10    5    6 ar
    11    5    7 1
    12    6   38 1
    13    7    8 1
    14    7   17 1
    15    7    9 1
    16    9   13 1
    17    9   10 2
    18   10   11 1
    19   10   15 1
    20   11   12 2
    21   12   13 1
    22   12   39 1
    23   13   14 1
    24   15   16 1
    25   15   40 1
    26   15   41 1
    27   16   17 1
    28   16   42 1
    29   16   43 1
    30   17   18 am
    31   18   19 2
    32   18   20 am
    33   20   21 1
    34   20   44 1
    35   21   26 ar
    36   21   22 ar
    37   22   23 ar
    38   22   45 1
    39   23   24 ar
    40   23   46 1
    41   24   25 ar
    42   24   47 1
    43   25   26 ar
    44   25   48 1
    45   26   27 1
    46   27   28 2
    47   27   29 1
    48   30   31 1
    49   31   32 1
    50   31   33 1
    51   31   34 1
@<TRIPOS>MOLECULE
ZINC46020348
   47    50     0     0     0
SMALL
USER_CHARGES

@<TRIPOS>ATOM
      1 C1         -0.0173    1.4248    0.0099 C.3       1 <0>         0.0271
      2 O1          0.0021   -0.0041    0.0020 O.3       1 <0>        -0.3192
      3 C2          0.6058   -0.6071   -1.0557 C.ar      1 <0>         0.1288
      4 C3          1.1730    0.1607   -2.0624 C.ar      1 <0>        -0.2114
      5 C4          1.7865   -0.4547   -3.1363 C.ar      1 <0>        -0.0575
      6 C5          1.8352   -1.8346   -3.2086 C.ar      1 <0>        -0.1374
      7 C6          1.2702   -2.6021   -2.2068 C.ar      1 <0>        -0.0580
      8 C7          0.6609   -1.9915   -1.1277 C.ar      1 <0>        -0.1549
      9 C8          2.5046   -2.5033   -4.3815 C.3       1 <0>         0.1933
     10 N1          3.9227   -2.7134   -4.0797 N.pl3     1 <0>        -0.7019
     11 C9          4.7524   -3.3198   -5.0198 C.2       1 <0>         0.4886
     12 N2          4.3705   -3.7427   -6.2234 N.2       1 <0>        -0.5933
     13 C10         5.4091   -4.2704   -6.8630 C.2       1 <0>         0.4992
     14 N3          5.5360   -4.8213   -8.0756 N.2       1 <0>        -0.5620
     15 C11         6.6961   -5.2833   -8.4928 C.2       1 <0>         0.2266
     16 C12         7.8209   -5.2067   -7.6738 C.2       1 <0>        -0.3754
     17 C13         7.7042   -4.6452   -6.4308 C.2       1 <0>         0.4939
     18 O2          8.7779   -4.5562   -5.6132 O.3       1 <0>        -0.6544
     19 N4          6.4891   -4.1773   -6.0312 N.pl3     1 <0>        -0.3529
     20 N5          6.0369   -3.5586   -4.8586 N.2       1 <0>        -0.3869
     21 C14         6.8080   -5.8990   -9.8637 C.3       1 <0>         0.1803
     22 N6          5.5004   -5.8632  -10.5234 N.pl3     1 <0>        -0.7242
     23 C15         5.3540   -6.3810  -11.8128 C.ar      1 <0>         0.2434
     24 C16         6.4461   -6.9351  -12.4683 C.ar      1 <0>        -0.2029
     25 C17         6.2984   -7.4460  -13.7428 C.ar      1 <0>        -0.0386
     26 C18         5.0643   -7.4060  -14.3670 C.ar      1 <0>        -0.1611
     27 C19         3.9746   -6.8546  -13.7165 C.ar      1 <0>        -0.0398
     28 C20         4.1149   -6.3477  -12.4395 C.ar      1 <0>        -0.1950
     29 Br1         4.8665   -8.1055  -16.1127 Br        1 <0>        -0.0753
     30 H1          1.0053    1.8021    0.0021 H         1 <0>         0.0557
     31 H2         -0.5445    1.7859   -0.8732 H         1 <0>         0.0554
     32 H3         -0.5275    1.7763    0.9067 H         1 <0>         0.0987
     33 H4          1.1347    1.2385   -2.0068 H         1 <0>         0.1278
     34 H5          2.2283    0.1425   -3.9203 H         1 <0>         0.1280
     35 H6          1.3092   -3.6798   -2.2657 H         1 <0>         0.1328
     36 H7          0.2237   -2.5913   -0.3432 H         1 <0>         0.1308
     37 H8          2.0276   -3.4646   -4.5726 H         1 <0>         0.0685
     38 H9          2.4108   -1.8695   -5.2632 H         1 <0>         0.0677
     39 H10         4.2839   -2.4302   -3.2252 H         1 <0>         0.4094
     40 H11         8.7728   -5.5859   -8.0153 H         1 <0>         0.1414
     41 H12         7.5296   -5.3370  -10.4566 H         1 <0>         0.0855
     42 H13         7.1403   -6.9331   -9.7716 H         1 <0>         0.0855
     43 H14         4.7363   -5.4801  -10.0649 H         1 <0>         0.4209
     44 H15         7.4099   -6.9660  -11.9819 H         1 <0>         0.1303
     45 H16         7.1472   -7.8770  -14.2530 H         1 <0>         0.1266
     46 H17         3.0126   -6.8243  -14.2063 H         1 <0>         0.1267
     47 H18         3.2630   -5.9215  -11.9306 H         1 <0>         0.1292
@<TRIPOS>BOND
     1    1    2 1
     2    1   30 1
     3    1   31 1
     4    1   32 1
     5    2    3 1
     6    3    8 ar
     7    3    4 ar
     8    4    5 ar
     9    4   33 1
    10    5    6 ar
    11    5   34 1
    12    6    7 ar
    13    6    9 1
    14    7    8 ar
    15    7   35 1
    16    8   36 1
    17    9   10 1
    18    9   37 1
    19    9   38 1
    20   10   11 1
    21   10   39 1
    22   11   20 2
    23   11   12 1
    24   12   13 2
    25   13   19 1
    26   13   14 1
    27   14   15 2
    28   15   16 1
    29   15   21 1
    30   16   17 2
    31   16   40 1
    32   17   18 1
    33   17   19 1
    34   19   20 1
    35   21   22 1
    36   21   41 1
    37   21   42 1
    38   22   23 1
    39   22   43 1
    40   23   28 ar
    41   23   24 ar
    42   24   25 ar
    43   24   44 1
    44   25   26 ar
    45   25   45 1
    46   26   27 ar
    47   26   29 1
    48   27   28 ar
    49   27   46 1
    50   28   47 1
@<TRIPOS>MOLECULE
ZINC63823829
   53    56     0     0     0
SMALL
USER_CHARGES

@<TRIPOS>ATOM
      1 C1         -0.0769    1.4423   -0.6412 C.3       1 <0>        -0.1072
      2 C2         -0.0844   -0.0644   -0.6119 C.2       1 <0>         0.1917
      3 C3         -1.1048   -0.7861   -0.2445 C.2       1 <0>        -0.3130
      4 C4         -2.5247   -0.3873    0.0797 C.3       1 <0>         0.0474
      5 H1         -2.7824   -0.7081    1.0891 H         1 <0>         0.0910
      6 C5         -3.4173   -1.1026   -0.9450 C.3       1 <0>        -0.1227
      7 C6         -2.9234   -2.4807   -1.2454 C.2       1 <0>         0.5237
      8 O1         -3.7308   -3.2472   -1.7266 O.2       1 <0>        -0.5721
      9 N1         -1.6971   -2.9642   -1.0457 N.am      1 <0>        -0.7111
     10 C7         -0.6823   -2.2454   -0.2856 C.3       1 <0>         0.4392
     11 H2         -0.6040   -2.6498    0.7235 H         1 <0>         0.0857
     12 N2          0.6232   -2.2153   -0.9477 N.pl3     1 <0>        -0.4323
     13 N3          0.9920   -0.8584   -0.9782 N.pl3     1 <0>        -0.5332
     14 C8          1.3441   -3.2983   -1.4458 C.ar      1 <0>         0.2294
     15 C9          2.5833   -3.0940   -2.0531 C.ar      1 <0>        -0.1363
     16 C10         3.2616   -4.2018   -2.5326 C.ar      1 <0>        -0.1880
     17 C11         2.6643   -5.4513   -2.3787 C.ar      1 <0>         0.3375
     18 O2          3.2927   -6.5661   -2.8331 O.3       1 <0>        -0.7109
     19 N4          1.4853   -5.5497   -1.7894 N.ar      1 <0>        -0.3250
     20 N5          0.8577   -4.5245   -1.3395 N.ar      1 <0>        -0.2522
     21 C12        -2.6841    1.1060   -0.0447 C.ar      1 <0>        -0.0992
     22 C13        -2.8778    1.6782   -1.2884 C.ar      1 <0>        -0.0748
     23 C14        -3.0237    3.0470   -1.4051 C.ar      1 <0>        -0.1513
     24 C15        -2.9763    3.8475   -0.2730 C.ar      1 <0>         0.1269
     25 C16        -2.7824    3.2709    0.9738 C.ar      1 <0>        -0.2077
     26 C17        -2.6421    1.9011    1.0858 C.ar      1 <0>        -0.0703
     27 O3         -3.1192    5.1943   -0.3853 O.3       1 <0>        -0.3147
     28 C18        -3.0597    5.9559    0.8224 C.3       1 <0>         0.0638
     29 C19        -3.2392    7.4404    0.4985 C.3       1 <0>        -0.0953
     30 C20        -4.6448    7.6744   -0.0588 C.3       1 <0>        -0.1475
     31 C21        -3.0516    8.2667    1.7724 C.3       1 <0>        -0.1469
     32 H3          0.9223    1.7957   -0.8959 H         1 <0>         0.0603
     33 H4         -0.7883    1.7947   -1.3880 H         1 <0>         0.0914
     34 H5         -0.3591    1.8262    0.3392 H         1 <0>         0.0869
     35 H6         -4.4309   -1.1670   -0.5494 H         1 <0>         0.1001
     36 H7         -3.4340   -0.5224   -1.8676 H         1 <0>         0.1005
     37 H8         -1.4713   -3.8296   -1.4212 H         1 <0>         0.4114
     38 H9          1.8714   -0.5267   -1.2183 H         1 <0>         0.4240
     39 H10         3.0006   -2.1023   -2.1467 H         1 <0>         0.1089
     40 H11         4.2242   -4.1004   -3.0116 H         1 <0>         0.1223
     41 H12        -2.9146    1.0546   -2.1694 H         1 <0>         0.1319
     42 H13        -3.1742    3.4935   -2.3769 H         1 <0>         0.1287
     43 H14        -2.7451    3.8919    1.8566 H         1 <0>         0.1251
     44 H15        -2.4955    1.4513    2.0566 H         1 <0>         0.1272
     45 H16        -3.8535    5.6323    1.4955 H         1 <0>         0.0617
     46 H17        -2.0925    5.8029    1.3011 H         1 <0>         0.0616
     47 H18        -2.4995    7.7426   -0.2428 H         1 <0>         0.0809
     48 H19        -4.7727    8.7320   -0.2895 H         1 <0>         0.0559
     49 H20        -4.7784    7.0858   -0.9664 H         1 <0>         0.0630
     50 H21        -5.3845    7.3722    0.6825 H         1 <0>         0.0539
     51 H22        -2.0502    8.0999    2.1694 H         1 <0>         0.0579
     52 H23        -3.1795    9.3243    1.5417 H         1 <0>         0.0641
     53 H24        -3.7913    7.9645    2.5138 H         1 <0>         0.0579
@<TRIPOS>BOND
     1    1    2 1
     2    1   32 1
     3    1   33 1
     4    1   34 1
     5    2   13 1
     6    2    3 2
     7    3   10 1
     8    3    4 1
     9    4    5 1
    10    4    6 1
    11    4   21 1
    12    6    7 1
    13    6   35 1
    14    6   36 1
    15    7    8 2
    16    7    9 am
    17    9   10 1
    18    9   37 1
    19   10   11 1
    20   10   12 1
    21   12   13 1
    22   12   14 1
    23   13   38 1
    24   14   15 ar
    25   14   20 ar
    26   15   16 ar
    27   15   39 1
    28   16   17 ar
    29   16   40 1
    30   17   18 1
    31   17   19 ar
    32   19   20 ar
    33   21   26 ar
    34   21   22 ar
    35   22   23 ar
    36   22   41 1
    37   23   24 ar
    38   23   42 1
    39   24   25 ar
    40   24   27 1
    41   25   26 ar
    42   25   43 1
    43   26   44 1
    44   27   28 1
    45   28   29 1
    46   28   45 1
    47   28   46 1
    48   29   30 1
    49   29   31 1
    50   29   47 1
    51   30   48 1
    52   30   49 1
    53   30   50 1
    54   31   51 1
    55   31   52 1
    56   31   53 1
@<TRIPOS>MOLECULE
ZINC09640317
   48    52     0     0     0
SMALL
USER_CHARGES
5-(4-chlorophenyl)-5-ethyl-3-[(oxoBLAHyl)methyl]imidazolidine-2,4-dione
@<TRIPOS>ATOM
      1 C1         -1.2561    2.2739    2.5113 C.3       1 <0>        -0.1586
      2 C2         -2.0683    1.8696    1.2793 C.3       1 <0>        -0.1198
      3 C3         -1.2347    2.1072    0.0185 C.3       1 <0>         0.1735
      4 C4         -0.0144    1.2081    0.0087 C.2       1 <0>         0.5461
      5 O1          0.0021   -0.0041    0.0020 O.2       1 <0>        -0.4488
      6 N1          1.0485    2.0367    0.0030 N.am      1 <0>        -0.5602
      7 C5          0.6732    3.3209    0.0127 C.2       1 <0>         0.7141
      8 O2          1.4534    4.2527    0.0101 O.2       1 <0>        -0.5319
      9 N2         -0.6642    3.4653    0.0256 N.am      1 <0>        -0.7129
     10 C6          2.4426    1.5868   -0.0112 C.3       1 <0>         0.1736
     11 C7          2.9082    1.4387   -1.4368 C.2       1 <0>         0.3616
     12 N3          4.1804    1.0344   -1.6767 N.am      1 <0>        -0.6142
     13 H1          4.7738    0.8459   -0.9329 H         1 <0>         0.4323
     14 C8          4.6258    0.8881   -2.9430 C.2       1 <0>         0.5710
     15 O3          5.7676    0.5203   -3.1640 O.2       1 <0>        -0.5047
     16 C9          3.7403    1.1752   -4.0065 C.2       1 <0>        -0.0833
     17 C10         2.4505    1.5904   -3.6906 C.2       1 <0>         0.1283
     18 N4          2.0788    1.7079   -2.4058 N.2       1 <0>        -0.4753
     19 C11         1.7756    1.8103   -4.9786 C.ar      1 <0>        -0.1208
     20 C12         0.4962    2.2233   -5.3445 C.ar      1 <0>        -0.0442
     21 C13         0.1690    2.3312   -6.6781 C.ar      1 <0>        -0.1375
     22 C14         1.1084    2.0302   -7.6536 C.ar      1 <0>        -0.0658
     23 C15         2.3771    1.6211   -7.3050 C.ar      1 <0>        -0.1137
     24 C16         2.7281    1.5051   -5.9643 C.ar      1 <0>         0.0951
     25 O4          3.8710    1.1356   -5.3487 O.3       1 <0>        -0.1551
     26 C17        -2.0666    1.8854   -1.2184 C.ar      1 <0>        -0.0961
     27 C18        -3.0753    0.9401   -1.2122 C.ar      1 <0>        -0.0770
     28 C19        -3.8423    0.7402   -2.3446 C.ar      1 <0>        -0.1090
     29 C20        -3.5930    1.4784   -3.4878 C.ar      1 <0>        -0.0202
     30 C21        -2.5797    2.4204   -3.4951 C.ar      1 <0>        -0.1127
     31 C22        -1.8171    2.6234   -2.3604 C.ar      1 <0>        -0.0786
     32 Cl1        -4.5510    1.2225   -4.9128 Cl        1 <0>        -0.0613
     33 H2         -1.8499    2.1046    3.4095 H         1 <0>         0.0718
     34 H3         -0.3463    1.6755    2.5591 H         1 <0>         0.0520
     35 H4         -0.9934    3.3295    2.4430 H         1 <0>         0.0642
     36 H5         -2.9781    2.4680    1.2315 H         1 <0>         0.0932
     37 H6         -2.3309    0.8139    1.3476 H         1 <0>         0.0936
     38 H7         -1.1568    4.3009    0.0347 H         1 <0>         0.4437
     39 H8          3.0663    2.3199    0.5004 H         1 <0>         0.1404
     40 H9          2.5196    0.6260    0.4978 H         1 <0>         0.1374
     41 H10        -0.2359    2.4575   -4.5858 H         1 <0>         0.1327
     42 H11        -0.8216    2.6514   -6.9653 H         1 <0>         0.1382
     43 H12         0.8429    2.1181   -8.6968 H         1 <0>         0.1444
     44 H13         3.0997    1.3900   -8.0736 H         1 <0>         0.1422
     45 H14        -3.2669    0.3608   -0.3211 H         1 <0>         0.1403
     46 H15        -4.6332    0.0048   -2.3383 H         1 <0>         0.1402
     47 H16        -2.3849    2.9972   -4.3871 H         1 <0>         0.1374
     48 H17        -1.0258    3.3584   -2.3661 H         1 <0>         0.1343
@<TRIPOS>BOND
     1    1    2 1
     2    1   33 1
     3    1   34 1
     4    1   35 1
     5    2    3 1
     6    2   36 1
     7    2   37 1
     8    3    9 1
     9    3    4 1
    10    3   26 1
    11    4    5 2
    12    4    6 am
    13    6    7 am
    14    6   10 1
    15    7    8 2
    16    7    9 am
    17    9   38 1
    18   10   11 1
    19   10   39 1
    20   10   40 1
    21   11   18 2
    22   11   12 1
    23   12   13 1
    24   12   14 am
    25   14   15 2
    26   14   16 1
    27   16   25 1
    28   16   17 2
    29   17   18 1
    30   17   19 1
    31   19   24 ar
    32   19   20 ar
    33   20   21 ar
    34   20   41 1
    35   21   22 ar
    36   21   42 1
    37   22   23 ar
    38   22   43 1
    39   23   24 ar
    40   23   44 1
    41   24   25 1
    42   26   31 ar
    43   26   27 ar
    44   27   28 ar
    45   27   45 1
    46   28   29 ar
    47   28   46 1
    48   29   30 ar
    49   29   32 1
    50   30   31 ar
    51   30   47 1
    52   31   48 1
@<TRIPOS>MOLECULE
ZINC16839370
   48    51     0     0     0
SMALL
USER_CHARGES
1-[(4-chlorophenyl)methyl]-6-oxo-N'-(2-oxochromene-3-carbonyl)pyridine-3-carbohydrazide
@<TRIPOS>ATOM
      1 C1         -1.2497    3.1366    0.0309 C.ar      1 <0>        -0.1451
      2 C2         -1.2156    1.7489    0.0173 C.ar      1 <0>        -0.0430
      3 C3         -0.0126    1.0758    0.0080 C.ar      1 <0>        -0.1406
      4 C4          1.1822    1.7876    0.0004 C.ar      1 <0>         0.1669
      5 C5          1.1452    3.1935    0.0083 C.ar      1 <0>        -0.1744
      6 C6         -0.0908    3.8575    0.0237 C.ar      1 <0>        -0.0412
      7 C7          2.3534    3.9357    0.0003 C.2       1 <0>         0.0536
      8 C8          3.5552    3.2492   -0.0154 C.2       1 <0>        -0.2525
      9 C9          3.5315    1.7822   -0.0230 C.2       1 <0>         0.5240
     10 O1          4.5761    1.1583   -0.0368 O.2       1 <0>        -0.4126
     11 O2          2.3592    1.1261   -0.0149 O.3       1 <0>        -0.2594
     12 C10         4.8348    3.9782   -0.0237 C.2       1 <0>         0.5736
     13 O3          5.8845    3.3641   -0.0375 O.2       1 <0>        -0.4991
     14 N1          4.8426    5.3260   -0.0161 N.am      1 <0>        -0.5196
     15 N2          6.0598    6.0195   -0.0240 N.am      1 <0>        -0.5134
     16 C11         6.0676    7.3672   -0.0164 C.2       1 <0>         0.5857
     17 O4          5.0180    7.9813   -0.0026 O.2       1 <0>        -0.5447
     18 C12         7.3488    8.0972   -0.0248 C.2       1 <0>        -0.2505
     19 C13         8.5741    7.3877   -0.0408 C.2       1 <0>        -0.0040
     20 C14         9.7406    8.0864   -0.0481 C.2       1 <0>        -0.2308
     21 C15         9.7058    9.4935   -0.0397 C.2       1 <0>         0.5179
     22 O5         10.7493   10.1247   -0.0463 O.2       1 <0>        -0.5266
     23 N3          8.5301   10.1475   -0.0240 N.am      1 <0>        -0.4837
     24 C16         7.3629    9.4771   -0.0227 C.2       1 <0>         0.2259
     25 C17         8.5200   11.6124   -0.0150 C.3       1 <0>         0.1270
     26 C18         8.5025   12.1233   -1.4327 C.ar      1 <0>        -0.1210
     27 C19         9.6917   12.3712   -2.0926 C.ar      1 <0>        -0.0748
     28 C20         9.6762   12.8345   -3.3947 C.ar      1 <0>        -0.1125
     29 C21         8.4702   13.0608   -4.0338 C.ar      1 <0>        -0.0223
     30 C22         7.2804   12.8179   -3.3709 C.ar      1 <0>        -0.1131
     31 C23         7.2971   12.3493   -2.0708 C.ar      1 <0>        -0.0888
     32 Cl1         8.4500   13.6489   -5.6671 Cl        1 <0>        -0.0629
     33 H1         -2.2001    3.6495    0.0428 H         1 <0>         0.1404
     34 H2         -2.1405    1.1911    0.0183 H         1 <0>         0.1453
     35 H3          0.0021   -0.0041    0.0020 H         1 <0>         0.1494
     36 H4         -0.1250    4.9369    0.0303 H         1 <0>         0.1444
     37 H5          2.3362    5.0155    0.0059 H         1 <0>         0.1558
     38 H6          4.0054    5.8157   -0.0051 H         1 <0>         0.4295
     39 H7          6.8970    5.5297   -0.0350 H         1 <0>         0.4343
     40 H8          8.5820    6.3078   -0.0467 H         1 <0>         0.1400
     41 H9         10.6866    7.5656   -0.0607 H         1 <0>         0.1595
     42 H10         6.4310   10.0229   -0.0154 H         1 <0>         0.1808
     43 H11         7.6328   11.9664    0.5098 H         1 <0>         0.1104
     44 H12         9.4126   11.9787    0.4922 H         1 <0>         0.1195
     45 H13        10.6330   12.1987   -1.5920 H         1 <0>         0.1422
     46 H14        10.6054   13.0239   -3.9116 H         1 <0>         0.1379
     47 H15         6.3387   12.9941   -3.8695 H         1 <0>         0.1380
     48 H16         6.3684   12.1593   -1.5534 H         1 <0>         0.1348
@<TRIPOS>BOND
     1    1    6 ar
     2    1    2 ar
     3    1   33 1
     4    2    3 ar
     5    2   34 1
     6    3    4 ar
     7    3   35 1
     8    4   11 1
     9    4    5 ar
    10    5    6 ar
    11    5    7 1
    12    6   36 1
    13    7    8 2
    14    7   37 1
    15    8    9 1
    16    8   12 1
    17    9   10 2
    18    9   11 1
    19   12   13 2
    20   12   14 am
    21   14   15 1
    22   14   38 1
    23   15   16 am
    24   15   39 1
    25   16   17 2
    26   16   18 1
    27   18   24 2
    28   18   19 1
    29   19   20 2
    30   19   40 1
    31   20   21 1
    32   20   41 1
    33   21   22 2
    34   21   23 am
    35   23   24 1
    36   23   25 1
    37   24   42 1
    38   25   26 1
    39   25   43 1
    40   25   44 1
    41   26   31 ar
    42   26   27 ar
    43   27   28 ar
    44   27   45 1
    45   28   29 ar
    46   28   46 1
    47   29   30 ar
    48   29   32 1
    49   30   31 ar
    50   30   47 1
    51   31   48 1
@<TRIPOS>MOLECULE
ZINC32674806
   56    60     0     0     0
SMALL
USER_CHARGES
(2R)-4-(1-isopropyl-6-phenyl-pyrazolo[3,4-b]pyridine-4-carbonyl)-2,3-dihydro-1,4-benzoxazine-2-carboxamide
@<TRIPOS>ATOM
      1 C1         -0.3829   10.9037    3.0323 C.3       1 <0>        -0.1646
      2 C2         -0.7583   10.3440    1.6587 C.3       1 <0>         0.1640
      3 C3         -0.7184   11.4682    0.6217 C.3       1 <0>        -0.1637
      4 N1          0.1944    9.2971    1.2810 N.pl3     1 <0>        -0.3777
      5 C4         -0.1129    7.9870    1.0170 C.ar      1 <0>         0.3238
      6 C5          1.1045    7.3503    0.6993 C.ar      1 <0>        -0.1822
      7 C6          2.1190    8.3265    0.7872 C.2       1 <0>         0.0888
      8 N2          1.5762    9.4607    1.1279 N.2       1 <0>        -0.2240
      9 C7          1.0976    5.9733    0.3780 C.ar      1 <0>         0.0003
     10 C8         -0.1238    5.3084    0.3860 C.ar      1 <0>        -0.1983
     11 C9         -1.2841    6.0142    0.7162 C.ar      1 <0>         0.2456
     12 N3         -1.2464    7.3027    1.0132 N.ar      1 <0>        -0.4776
     13 C10        -2.5859    5.3043    0.7302 C.ar      1 <0>        -0.0615
     14 C11        -2.6255    3.9138    0.6410 C.ar      1 <0>        -0.0939
     15 C12        -3.8397    3.2581    0.6598 C.ar      1 <0>        -0.1201
     16 C13        -5.0165    3.9788    0.7553 C.ar      1 <0>        -0.0983
     17 C14        -4.9836    5.3592    0.8388 C.ar      1 <0>        -0.1242
     18 C15        -3.7750    6.0253    0.8267 C.ar      1 <0>        -0.0708
     19 C16         2.3493    5.2639    0.0381 C.2       1 <0>         0.5669
     20 O1          3.3976    5.5993    0.5543 O.2       1 <0>        -0.4888
     21 N4          2.3283    4.2452   -0.8442 N.am      1 <0>        -0.5415
     22 C17         1.0593    3.7441   -1.3995 C.3       1 <0>         0.0480
     23 C18         1.2775    3.4881   -2.8976 C.3       1 <0>         0.0597
     24 H1          1.5788    4.3986   -3.4362 H         1 <0>         0.1073
     25 O2          2.3442    2.5494   -3.0542 O.3       1 <0>        -0.2857
     26 C19         3.4987    2.7844   -2.3769 C.ar      1 <0>         0.0982
     27 C20         3.5155    3.6250   -1.2664 C.ar      1 <0>         0.0702
     28 C21         4.6988    3.8506   -0.5817 C.ar      1 <0>        -0.1151
     29 C22         5.8661    3.2413   -1.0043 C.ar      1 <0>        -0.1275
     30 C23         5.8513    2.4038   -2.1040 C.ar      1 <0>        -0.0982
     31 C24         4.6742    2.1782   -2.7932 C.ar      1 <0>        -0.1233
     32 C25         0.0170    2.9259   -3.5027 C.2       1 <0>         0.5304
     33 O3          0.0056    1.7935   -3.9369 O.2       1 <0>        -0.5131
     34 N5         -1.0975    3.6815   -3.5614 N.am      1 <0>        -0.8687
     35 H2         -0.4116   10.0954    3.7779 H         1 <0>         0.0610
     36 H3         -1.0982   11.6897    3.3159 H         1 <0>         0.0803
     37 H4          0.6310   11.3283    2.9906 H         1 <0>         0.0729
     38 H5         -1.7551    9.8798    1.6886 H         1 <0>         0.1091
     39 H6         -0.9883   11.0658   -0.3658 H         1 <0>         0.0606
     40 H7          0.2955   11.8928    0.5801 H         1 <0>         0.0727
     41 H8         -1.4337   12.2542    0.9054 H         1 <0>         0.0802
     42 H9          3.1703    8.1612    0.6032 H         1 <0>         0.2022
     43 H10        -0.1749    4.2575    0.1424 H         1 <0>         0.1595
     44 H11        -1.7075    3.3504    0.5615 H         1 <0>         0.1244
     45 H12        -3.8713    2.1805    0.5952 H         1 <0>         0.1296
     46 H13        -5.9647    3.4618    0.7651 H         1 <0>         0.1269
     47 H14        -5.9055    5.9168    0.9139 H         1 <0>         0.1283
     48 H15        -3.7505    7.1030    0.8923 H         1 <0>         0.1346
     49 H16         0.7781    2.8117   -0.8880 H         1 <0>         0.1057
     50 H17         0.2710    4.4966   -1.2498 H         1 <0>         0.1342
     51 H18         4.7093    4.5008    0.2806 H         1 <0>         0.1737
     52 H19         6.7893    3.4164   -0.4719 H         1 <0>         0.1314
     53 H20         6.7643    1.9271   -2.4290 H         1 <0>         0.1332
     54 H21         4.6694    1.5258   -3.6539 H         1 <0>         0.1383
     55 H22        -2.0176    3.2711   -4.0031 H         1 <0>         0.4363
     56 H23        -1.0870    4.7086   -3.1676 H         1 <0>         0.4208
@<TRIPOS>BOND
     1    1    2 1
     2    1   35 1
     3    1   36 1
     4    1   37 1
     5    2    3 1
     6    2    4 1
     7    2   38 1
     8    3   39 1
     9    3   40 1
    10    3   41 1
    11    4    8 1
    12    4    5 1
    13    5   12 ar
    14    5    6 ar
    15    6    7 1
    16    6    9 ar
    17    7    8 2
    18    7   42 1
    19    9   10 ar
    20    9   19 1
    21   10   11 ar
    22   10   43 1
    23   11   12 ar
    24   11   13 1
    25   13   18 ar
    26   13   14 ar
    27   14   15 ar
    28   14   44 1
    29   15   16 ar
    30   15   45 1
    31   16   17 ar
    32   16   46 1
    33   17   18 ar
    34   17   47 1
    35   18   48 1
    36   19   20 2
    37   19   21 am
    38   21   27 1
    39   21   22 1
    40   22   23 1
    41   22   49 1
    42   22   50 1
    43   23   24 1
    44   23   25 1
    45   23   32 1
    46   25   26 1
    47   26   31 ar
    48   26   27 ar
    49   27   28 ar
    50   28   29 ar
    51   28   51 1
    52   29   30 ar
    53   29   52 1
    54   30   31 ar
    55   30   53 1
    56   31   54 1
    57   32   33 2
    58   32   34 am
    59   34   55 1
    60   34   56 1
@<TRIPOS>MOLECULE
ZINC09365802
   50    53     0     0     0
SMALL
USER_CHARGES

@<TRIPOS>ATOM
      1 C1          0.0242    1.5032    0.0053 C.3       1 <0>        -0.1147
      2 C2          0.0333   -0.0038   -0.0015 C.ar      1 <0>        -0.0926
      3 C3          0.6314   -0.6855   -1.0457 C.ar      1 <0>        -0.1079
      4 C4          0.6410   -2.0662   -1.0552 C.ar      1 <0>        -0.1098
      5 C5          0.0496   -2.7706   -0.0142 C.ar      1 <0>         0.1346
      6 C6         -0.5497   -2.0830    1.0331 C.ar      1 <0>        -0.1036
      7 C7         -0.5514   -0.7018    1.0390 C.ar      1 <0>        -0.1041
      8 C8         -1.1930   -2.8430    2.1643 C.3       1 <0>        -0.1178
      9 N1          0.0572   -4.1689   -0.0209 N.am      1 <0>        -0.6644
     10 C9         -0.0419   -4.8377   -1.1868 C.2       1 <0>         0.6113
     11 O1         -0.0553   -4.2269   -2.2395 O.2       1 <0>        -0.4960
     12 C10        -0.1334   -6.3008   -1.1871 C.2       1 <0>        -0.2562
     13 C11        -0.2330   -7.1475   -2.2522 C.2       1 <0>         0.0408
     14 C12        -0.3095   -8.5259   -2.0397 C.2       1 <0>        -0.2557
     15 C13        -0.4217   -9.6206   -3.0302 C.2       1 <0>         0.5656
     16 O2         -0.4590   -9.3817   -4.2242 O.2       1 <0>        -0.4927
     17 N2         -0.4811  -10.8881   -2.5769 N.am      1 <0>        -0.6284
     18 H1         -0.5547  -11.6169   -3.2127 H         1 <0>         0.4286
     19 C14        -0.4395  -11.1657   -1.2505 C.2       1 <0>         0.4463
     20 N3         -0.3413  -10.2247   -0.3512 N.2       1 <0>        -0.4861
     21 C15        -0.2761   -8.9433   -0.6895 C.2       1 <0>         0.1283
     22 S1         -0.1343   -7.4171    0.2056 S.3       1 <0>         0.1961
     23 C16        -0.5092  -12.6025   -0.8013 C.3       1 <0>        -0.0861
     24 S2         -0.4333  -12.6742    1.0097 S.3       1 <0>         0.1018
     25 C17        -0.5246  -14.3961    1.3724 C.2       1 <0>         0.1314
     26 N4         -0.6185  -15.3734    0.5009 N.2       1 <0>        -0.2975
     27 N5         -0.6638  -16.5021    1.1140 N.2       1 <0>        -0.2860
     28 C18        -0.6020  -16.3144    2.4019 C.2       1 <0>         0.1660
     29 N6         -0.5052  -14.9666    2.6126 N.pl3     1 <0>        -0.4640
     30 C19        -0.4050  -14.2779    3.9017 C.3       1 <0>         0.0695
     31 C20        -0.2610   -6.5969   -3.6547 C.3       1 <0>        -0.1252
     32 H2          0.9170    1.8696    0.5119 H         1 <0>         0.0706
     33 H3          0.0118    1.8711   -1.0207 H         1 <0>         0.0669
     34 H4         -0.8628    1.8588    0.5296 H         1 <0>         0.0661
     35 H5          1.0910   -0.1373   -1.8548 H         1 <0>         0.1262
     36 H6          1.1076   -2.5980   -1.8713 H         1 <0>         0.1411
     37 H7         -1.0134   -0.1664    1.8553 H         1 <0>         0.1266
     38 H8         -0.4555   -3.0239    2.9462 H         1 <0>         0.0728
     39 H9         -2.0184   -2.2590    2.5714 H         1 <0>         0.0737
     40 H10        -1.5705   -3.7960    1.7934 H         1 <0>         0.0631
     41 H11         0.1337   -4.6575    0.8135 H         1 <0>         0.4083
     42 H12        -1.4446  -13.0452   -1.1435 H         1 <0>         0.1417
     43 H13         0.3302  -13.1560   -1.2223 H         1 <0>         0.1417
     44 H14        -0.6193  -17.0815    3.1620 H         1 <0>         0.2256
     45 H15        -1.4049  -14.0431    4.2669 H         1 <0>         0.0888
     46 H16         0.1019  -14.9225    4.6197 H         1 <0>         0.0989
     47 H17         0.1623  -13.3555    3.7777 H         1 <0>         0.0949
     48 H18         0.7569   -6.5280   -4.0384 H         1 <0>         0.0823
     49 H19        -0.8460   -7.2587   -4.2933 H         1 <0>         0.0842
     50 H20        -0.7142   -5.6056   -3.6469 H         1 <0>         0.0949
@<TRIPOS>BOND
     1    1    2 1
     2    1   32 1
     3    1   33 1
     4    1   34 1
     5    2    7 ar
     6    2    3 ar
     7    3    4 ar
     8    3   35 1
     9    4    5 ar
    10    4   36 1
    11    5    6 ar
    12    5    9 1
    13    6    7 ar
    14    6    8 1
    15    7   37 1
    16    8   38 1
    17    8   39 1
    18    8   40 1
    19    9   10 am
    20    9   41 1
    21   10   11 2
    22   10   12 1
    23   12   22 1
    24   12   13 2
    25   13   14 1
    26   13   31 1
    27   14   21 2
    28   14   15 1
    29   15   16 2
    30   15   17 am
    31   17   18 1
    32   17   19 1
    33   19   20 2
    34   19   23 1
    35   20   21 1
    36   21   22 1
    37   23   24 1
    38   23   42 1
    39   23   43 1
    40   24   25 1
    41   25   29 1
    42   25   26 2
    43   26   27 1
    44   27   28 2
    45   28   29 1
    46   28   44 1
    47   29   30 1
    48   30   45 1
    49   30   46 1
    50   30   47 1
    51   31   48 1
    52   31   49 1
    53   31   50 1
@<TRIPOS>MOLECULE
ZINC09861035
   48    52     0     0     0
SMALL
USER_CHARGES

@<TRIPOS>ATOM
      1 C1          0.0680    1.3912   -0.1019 C.ar      1 <0>        -0.1060
      2 C2          0.5766    0.9102    1.0910 C.ar      1 <0>        -0.1191
      3 C3          1.7721    0.2205    1.1063 C.ar      1 <0>        -0.0927
      4 C4          2.4667    0.0093   -0.0828 C.ar      1 <0>        -0.0204
      5 C5          1.9498    0.4961   -1.2816 C.ar      1 <0>        -0.0857
      6 C6          0.7535    1.1844   -1.2854 C.ar      1 <0>        -0.1190
      7 C7          3.7530   -0.7312   -0.0725 C.2       1 <0>         0.1628
      8 C8          4.0313   -1.8862    0.6644 C.2       1 <0>        -0.2501
      9 C9          5.3184   -2.2557    0.4006 C.2       1 <0>         0.2772
     10 N1          5.8305   -1.3642   -0.4731 N.pl3     1 <0>        -0.4445
     11 H1          6.7283   -1.3768   -0.8403 H         1 <0>         0.4491
     12 N2          4.8341   -0.4189   -0.7617 N.2       1 <0>        -0.2474
     13 O1          5.8984   -3.3437    0.9663 O.3       1 <0>        -0.2292
     14 C10         5.2698   -3.9124    2.0151 C.2       1 <0>         0.4397
     15 C11         3.9942   -3.6369    2.3668 C.2       1 <0>        -0.2578
     16 C12         3.1393   -2.6560    1.6037 C.3       1 <0>         0.1200
     17 H2          2.6579   -1.9689    2.2996 H         1 <0>         0.1000
     18 C13         2.0919   -3.3994    0.8155 C.ar      1 <0>        -0.0631
     19 C14         2.4728   -4.3486   -0.1150 C.ar      1 <0>        -0.0852
     20 C15         1.5147   -5.0311   -0.8391 C.ar      1 <0>        -0.1146
     21 C16         0.1691   -4.7638   -0.6318 C.ar      1 <0>         0.0795
     22 C17        -0.2105   -3.8112    0.3028 C.ar      1 <0>        -0.1097
     23 C18         0.7514   -3.1352    1.0280 C.ar      1 <0>        -0.0910
     24 O2         -0.7755   -5.4337   -1.3433 O.3       1 <0>        -0.2853
     25 C19        -1.0766   -6.6937   -0.9670 C.2       1 <0>         0.5505
     26 O3         -0.4473   -7.2286   -0.0741 O.2       1 <0>        -0.4667
     27 C20        -2.1612   -7.4176   -1.6338 C.2       1 <0>        -0.0694
     28 C21        -2.5718   -8.6895   -1.3491 C.2       1 <0>        -0.0983
     29 C22        -3.6298   -8.9772   -2.2247 C.2       1 <0>        -0.2281
     30 C23        -3.8170   -7.8830   -2.9959 C.2       1 <0>         0.0138
     31 O4         -2.9342   -6.9435   -2.6330 O.3       1 <0>        -0.1501
     32 C24         3.4335   -4.3012    3.5048 C.1       1 <0>         0.2685
     33 N3          2.9888   -4.8281    4.4075 N.1       1 <0>        -0.4326
     34 N4          5.9660   -4.8236    2.7696 N.pl3     1 <0>        -0.8296
     35 H3         -0.8700    1.9265   -0.1100 H         1 <0>         0.1245
     36 H4          0.0375    1.0748    2.0122 H         1 <0>         0.1277
     37 H5          2.1685   -0.1544    2.0383 H         1 <0>         0.1271
     38 H6          2.4844    0.3354   -2.2061 H         1 <0>         0.1260
     39 H7          0.3517    1.5618   -2.2141 H         1 <0>         0.1263
     40 H8          3.5203   -4.5563   -0.2760 H         1 <0>         0.1219
     41 H9          1.8127   -5.7719   -1.5663 H         1 <0>         0.1272
     42 H10        -1.2573   -3.6014    0.4660 H         1 <0>         0.1326
     43 H11         0.4563   -2.3967    1.7588 H         1 <0>         0.1330
     44 H12        -2.1615   -9.3460   -0.5961 H         1 <0>         0.1662
     45 H13        -4.1895   -9.8996   -2.2733 H         1 <0>         0.1639
     46 H14        -4.5590   -7.7816   -3.7740 H         1 <0>         0.2173
     47 H15         6.8834   -5.0417    2.5420 H         1 <0>         0.4120
     48 H16         5.5406   -5.2495    3.5302 H         1 <0>         0.4287
@<TRIPOS>BOND
     1    1    6 ar
     2    1    2 ar
     3    1   35 1
     4    2    3 ar
     5    2   36 1
     6    3    4 ar
     7    3   37 1
     8    4    5 ar
     9    4    7 1
    10    5    6 ar
    11    5   38 1
    12    6   39 1
    13    7   12 2
    14    7    8 1
    15    8   16 1
    16    8    9 2
    17    9   10 1
    18    9   13 1
    19   10   11 1
    20   10   12 1
    21   13   14 1
    22   14   15 2
    23   14   34 1
    24   15   16 1
    25   15   32 1
    26   16   17 1
    27   16   18 1
    28   18   23 ar
    29   18   19 ar
    30   19   20 ar
    31   19   40 1
    32   20   21 ar
    33   20   41 1
    34   21   22 ar
    35   21   24 1
    36   22   23 ar
    37   22   42 1
    38   23   43 1
    39   24   25 1
    40   25   26 2
    41   25   27 1
    42   27   31 1
    43   27   28 2
    44   28   29 1
    45   28   44 1
    46   29   30 2
    47   29   45 1
    48   30   31 1
    49   30   46 1
    50   32   33 3
    51   34   47 1
    52   34   48 1
@<TRIPOS>MOLECULE
ZINC13044282
   55    56     0     0     0
SMALL
USER_CHARGES
3-butyl-2-[2-(isobutylcarbamoylamino)-2-oxo-ethyl]sulfanyl-4-oxo-quinazoline-7-carboxylic acid
@<TRIPOS>ATOM
      1 C1         -0.7766    1.6061   -3.7298 C.3       1 <0>        -0.1516
      2 C2         -0.0366    1.0992   -2.4903 C.3       1 <0>        -0.1192
      3 C3         -0.7527    1.5927   -1.2315 C.3       1 <0>        -0.1366
      4 C4         -0.0127    1.0858    0.0080 C.3       1 <0>         0.0907
      5 N1         -0.6984    1.5583    1.2133 N.am      1 <0>        -0.5288
      6 C5         -1.6777    0.8063    1.7666 C.2       1 <0>         0.5571
      7 O1         -2.0034   -0.2613    1.2813 O.2       1 <0>        -0.5135
      8 C6         -2.3344    1.3259    2.9767 C.ar      1 <0>        -0.1953
      9 C7         -3.3539    0.6216    3.6162 C.ar      1 <0>        -0.0628
     10 C8         -3.9387    1.1383    4.7365 C.ar      1 <0>        -0.0868
     11 C9         -3.5234    2.3726    5.2531 C.ar      1 <0>        -0.0668
     12 C10        -2.5097    3.0913    4.6321 C.ar      1 <0>        -0.0735
     13 C11        -1.9038    2.5725    3.4842 C.ar      1 <0>         0.1383
     14 N2         -0.9126    3.2381    2.8460 N.2       1 <0>        -0.5151
     15 C12        -0.3402    2.7514    1.7726 C.2       1 <0>         0.3373
     16 S1          0.9472    3.6831    1.0114 S.3       1 <0>         0.0658
     17 C13         1.0025    5.1099    2.1237 C.3       1 <0>        -0.1516
     18 C14         2.0643    6.0712    1.6552 C.2       1 <0>         0.5399
     19 O2          2.7189    5.8168    0.6670 O.2       1 <0>        -0.4535
     20 N3          2.2862    7.2137    2.3348 N.am      1 <0>        -0.6860
     21 C15         3.2358    8.0735    1.9158 C.2       1 <0>         0.6956
     22 O3          3.8920    7.8185    0.9251 O.2       1 <0>        -0.5288
     23 N4          3.4576    9.2160    2.5954 N.am      1 <0>        -0.7362
     24 C16         4.4898   10.1506    2.1399 C.3       1 <0>         0.1385
     25 C17         4.5366   11.3566    3.0801 C.3       1 <0>        -0.1087
     26 C18         4.9866   10.9025    4.4702 C.3       1 <0>        -0.1508
     27 C19         5.5256   12.3895    2.5360 C.3       1 <0>        -0.1457
     28 C20        -4.1697    2.9149    6.4685 C.2       1 <0>         0.4881
     29 O4         -3.8135    3.9846    6.9198 O.co2     1 <0>        -0.6223
     30 H1         -0.2664    1.2545   -4.6266 H         1 <0>         0.0552
     31 H2         -1.7991    1.2288   -3.7221 H         1 <0>         0.0538
     32 H3         -0.7913    2.6960   -3.7239 H         1 <0>         0.0557
     33 H4          0.9860    1.4765   -2.4981 H         1 <0>         0.0672
     34 H5         -0.0218    0.0093   -2.4963 H         1 <0>         0.0650
     35 H6         -1.7753    1.2154   -1.2238 H         1 <0>         0.0712
     36 H7         -0.7675    2.6825   -1.2255 H         1 <0>         0.0739
     37 H8          0.0021   -0.0041    0.0020 H         1 <0>         0.1030
     38 H9          1.0099    1.4631    0.0003 H         1 <0>         0.0953
     39 H10        -3.6806   -0.3309    3.2258 H         1 <0>         0.1337
     40 H11        -4.7280    0.5903    5.2294 H         1 <0>         0.1431
     41 H12        -2.1926    4.0428    5.0327 H         1 <0>         0.1443
     42 H13         0.0338    5.6095    2.1222 H         1 <0>         0.1385
     43 H14         1.2366    4.7741    3.1340 H         1 <0>         0.1382
     44 H15         1.7624    7.4173    3.1255 H         1 <0>         0.4151
     45 H16         2.9339    9.4195    3.3860 H         1 <0>         0.4001
     46 H17         5.4586    9.6509    2.1414 H         1 <0>         0.0706
     47 H18         4.2558   10.4863    1.1296 H         1 <0>         0.0703
     48 H19         3.5447   11.8036    3.1474 H         1 <0>         0.0786
     49 H20         5.0200   11.7618    5.1400 H         1 <0>         0.0593
     50 H21         4.2821   10.1667    4.8578 H         1 <0>         0.0553
     51 H22         5.9785   10.4556    4.4029 H         1 <0>         0.0583
     52 H23         5.2050   12.7130    1.5457 H         1 <0>         0.0589
     53 H24         5.5589   13.2487    3.2059 H         1 <0>         0.0615
     54 H25         6.5175   11.9425    2.4688 H         1 <0>         0.0591
     55 O5         -5.1531    2.2223    7.0745 O.co2     1 <0>        -0.7433
@<TRIPOS>BOND
     1    1    2 1
     2    1   30 1
     3    1   31 1
     4    1   32 1
     5    2    3 1
     6    2   33 1
     7    2   34 1
     8    3    4 1
     9    3   35 1
    10    3   36 1
    11    4    5 1
    12    4   37 1
    13    4   38 1
    14    5   15 1
    15    5    6 am
    16    6    7 2
    17    6    8 1
    18    8   13 ar
    19    8    9 ar
    20    9   10 ar
    21    9   39 1
    22   10   11 ar
    23   10   40 1
    24   11   12 ar
    25   11   28 1
    26   12   13 ar
    27   12   41 1
    28   13   14 1
    29   14   15 2
    30   15   16 1
    31   16   17 1
    32   17   18 1
    33   17   42 1
    34   17   43 1
    35   18   19 2
    36   18   20 am
    37   20   21 am
    38   20   44 1
    39   21   22 2
    40   21   23 am
    41   23   24 1
    42   23   45 1
    43   24   25 1
    44   24   46 1
    45   24   47 1
    46   25   26 1
    47   25   27 1
    48   25   48 1
    49   26   49 1
    50   26   50 1
    51   26   51 1
    52   27   52 1
    53   27   53 1
    54   27   54 1
    55   28   29 2
    56   28   55 1
@<TRIPOS>MOLECULE
ZINC13268978
   53    56     0     0     0
SMALL
USER_CHARGES
2-(aminoBLAHyl)-5-(diethylsulfamoyl)benzoic acid
@<TRIPOS>ATOM
      1 C1         -6.7522    9.7966   -1.5149 C.3       1 <0>        -0.1717
      2 C2         -5.4432    9.0072   -1.4498 C.3       1 <0>         0.1167
      3 N1         -4.6950    9.4002   -0.2532 N.pl3     1 <0>        -0.9969
      4 C3         -3.8210   10.5754   -0.2888 C.3       1 <0>         0.1118
      5 C4         -2.4495   10.1746   -0.8358 C.3       1 <0>        -0.1793
      6 S1         -4.8372    8.5159    1.1398 S.o2      1 <0>         2.6911
      7 O1         -6.0891    7.8473    1.0704 O.2       1 <0>        -0.9514
      8 O2         -4.4968    9.3865    2.2100 O.2       1 <0>        -0.9652
      9 C5         -3.5957    7.2665    1.0927 C.ar      1 <0>        -0.6921
     10 C6         -2.3410    7.5209    1.6246 C.ar      1 <0>        -0.0203
     11 C7         -1.3596    6.5520    1.5945 C.ar      1 <0>        -0.1872
     12 C8         -1.6240    5.3104    1.0292 C.ar      1 <0>         0.1677
     13 C9         -2.8919    5.0514    0.4844 C.ar      1 <0>        -0.1028
     14 C10        -3.8772    6.0423    0.5281 C.ar      1 <0>         0.0261
     15 C11        -3.1839    3.7421   -0.1238 C.2       1 <0>         0.4862
     16 O3         -2.3578    2.8521   -0.0758 O.co2     1 <0>        -0.5871
     17 N2         -0.6382    4.3334    0.9982 N.pl3     1 <0>        -0.4628
     18 C12        -0.2767    3.9066    2.3573 C.3       1 <0>         0.0692
     19 C13         0.5121    2.5962    2.3031 C.3       1 <0>        -0.0622
     20 C14         1.6685    2.7731    1.3216 C.2       1 <0>        -0.0681
     21 C15         1.6379    3.7884    0.4262 C.2       1 <0>        -0.1500
     22 S2          3.1427    3.6384   -0.5007 S.3       1 <0>         0.1286
     23 C16         3.8103    2.2197    0.3080 C.ar      1 <0>         0.1297
     24 C17         2.8302    1.9040    1.2844 C.ar      1 <0>        -0.2379
     25 C18         3.0920    0.7772    2.1157 C.ar      1 <0>         0.4938
     26 N3          4.2372    0.1383    1.8842 N.ar      1 <0>        -0.5989
     27 C19         5.1028    0.4913    0.9554 C.ar      1 <0>         0.3482
     28 N4          4.9211    1.5293    0.1475 N.ar      1 <0>        -0.5013
     29 N5          2.2109    0.3715    3.1019 N.pl3     1 <0>        -0.8249
     30 C20         0.5512    4.8052    0.2670 C.3       1 <0>         0.1426
     31 H1         -6.5316   10.8632   -1.5583 H         1 <0>         0.0559
     32 H2         -7.3089    9.5042   -2.4053 H         1 <0>         0.0684
     33 H3         -7.3488    9.5848   -0.6276 H         1 <0>         0.0632
     34 H4         -4.8467    9.2190   -2.3372 H         1 <0>         0.0797
     35 H5         -5.6639    7.9407   -1.4064 H         1 <0>         0.0877
     36 H6         -4.2612   11.3361   -0.9335 H         1 <0>         0.0818
     37 H7         -3.7077   10.9745    0.7192 H         1 <0>         0.0910
     38 H8         -1.7992   11.0490   -0.8623 H         1 <0>         0.0667
     39 H9         -2.0093    9.4138   -0.1911 H         1 <0>         0.0591
     40 H10        -2.5628    9.7754   -1.8437 H         1 <0>         0.0619
     41 H11        -2.1305    8.4843    2.0651 H         1 <0>         0.1321
     42 H12        -0.3848    6.7584    2.0112 H         1 <0>         0.1246
     43 H13        -4.8565    5.8495    0.1155 H         1 <0>         0.1506
     44 H14        -1.1838    3.7587    2.9432 H         1 <0>         0.0849
     45 H15         0.3340    4.6771    2.8279 H         1 <0>         0.0385
     46 H16        -0.1379    1.7898    1.9636 H         1 <0>         0.1010
     47 H17         0.9032    2.3615    3.2931 H         1 <0>         0.0770
     48 H18         6.0050   -0.0922    0.8462 H         1 <0>         0.2004
     49 H19         1.3189    0.7507    3.1413 H         1 <0>         0.4180
     50 H20         2.4849   -0.2922    3.7540 H         1 <0>         0.4088
     51 H21         0.8784    5.7599    0.6787 H         1 <0>         0.0584
     52 H22         0.3108    4.9234   -0.7896 H         1 <0>         0.0990
     53 O4         -4.3671    3.5312   -0.7336 O.co2     1 <0>        -0.7600
@<TRIPOS>BOND
     1    1    2 1
     2    1   31 1
     3    1   32 1
     4    1   33 1
     5    2    3 1
     6    2   34 1
     7    2   35 1
     8    3    4 1
     9    3    6 1
    10    4    5 1
    11    4   36 1
    12    4   37 1
    13    5   38 1
    14    5   39 1
    15    5   40 1
    16    6    7 2
    17    6    8 2
    18    6    9 1
    19    9   14 ar
    20    9   10 ar
    21   10   11 ar
    22   10   41 1
    23   11   12 ar
    24   11   42 1
    25   12   13 ar
    26   12   17 1
    27   13   14 ar
    28   13   15 1
    29   14   43 1
    30   15   16 2
    31   15   53 1
    32   17   30 1
    33   17   18 1
    34   18   19 1
    35   18   44 1
    36   18   45 1
    37   19   20 1
    38   19   46 1
    39   19   47 1
    40   20   24 1
    41   20   21 2
    42   21   22 1
    43   21   30 1
    44   22   23 1
    45   23   28 ar
    46   23   24 ar
    47   24   25 ar
    48   25   26 ar
    49   25   29 1
    50   26   27 ar
    51   27   28 ar
    52   27   48 1
    53   29   49 1
    54   29   50 1
    55   30   51 1
    56   30   52 1
@<TRIPOS>MOLECULE
ZINC23740700
   52    54     0     0     0
SMALL
USER_CHARGES
N-[[4-(2-hydroxyethyl-methyl-amino)phenyl]methyleneamino]-2-(2-thienylsulfonylamino)benzamide
@<TRIPOS>ATOM
      1 C1         -2.5637   -9.5798    0.0930 C.3       1 <0>         0.0893
      2 N1         -1.3754   -8.7302   -0.0175 N.pl3     1 <0>        -0.6224
      3 C2         -0.0565   -9.3372   -0.2136 C.3       1 <0>         0.1215
      4 C3          0.5839   -9.6161    1.1476 C.3       1 <0>         0.0634
      5 O1         -0.1851  -10.5993    1.8434 O.3       1 <0>        -0.5981
      6 C4         -1.4996   -7.3433    0.0639 C.ar      1 <0>         0.2238
      7 C5         -2.7526   -6.7688    0.2500 C.ar      1 <0>        -0.2066
      8 C6         -2.8792   -5.3996    0.3309 C.ar      1 <0>        -0.0464
      9 C7         -1.7466   -4.5874    0.2256 C.ar      1 <0>        -0.1008
     10 C8         -0.4898   -5.1680    0.0333 C.ar      1 <0>        -0.0312
     11 C9         -0.3704   -6.5382   -0.0418 C.ar      1 <0>        -0.2055
     12 C10        -1.8780   -3.1218    0.3111 C.2       1 <0>         0.0783
     13 N2         -0.8250   -2.3689    0.2131 N.2       1 <0>        -0.2145
     14 N3         -0.9498   -0.9759    0.2944 N.am      1 <0>        -0.5996
     15 C11         0.1434   -0.1942    0.1927 C.2       1 <0>         0.5726
     16 O2          1.2385   -0.6983    0.0303 O.2       1 <0>        -0.4583
     17 C12         0.0120    1.2713    0.2782 C.ar      1 <0>        -0.1947
     18 C13        -1.2447    1.8553    0.4589 C.ar      1 <0>        -0.0603
     19 C14        -1.3601    3.2254    0.5428 C.ar      1 <0>        -0.2093
     20 C15        -0.2368    4.0306    0.4384 C.ar      1 <0>        -0.0600
     21 C16         1.0103    3.4698    0.2546 C.ar      1 <0>        -0.2425
     22 C17         1.1476    2.0896    0.1728 C.ar      1 <0>         0.2934
     23 N4          2.4021    1.5225   -0.0118 N.2       1 <0>        -1.0079
     24 S1          3.7328    2.2076    0.6969 S.o2      1 <0>         2.6051
     25 O3          4.8244    1.3350    0.4395 O.2       1 <0>        -0.9818
     26 O4          3.7418    3.5742    0.3078 O.2       1 <0>        -1.0328
     27 C18         3.4671    2.1815    2.4385 C.2       1 <0>        -0.6906
     28 C19         3.7960    1.2222    3.3379 C.2       1 <0>        -0.0527
     29 C20         3.4869    1.4187    4.6708 C.2       1 <0>        -0.1774
     30 C21         2.8639    2.5648    5.0390 C.2       1 <0>        -0.1788
     31 S2          2.7018    3.4151    3.4776 S.3       1 <0>         0.1274
     32 H1         -3.4535   -8.9490    0.2358 H         1 <0>         0.0755
     33 H2         -2.4520  -10.2563    0.9531 H         1 <0>         0.0641
     34 H3         -2.6778  -10.1720   -0.8269 H         1 <0>         0.0486
     35 H4         -0.1660  -10.2811   -0.7677 H         1 <0>         0.0796
     36 H5          0.5828   -8.6485   -0.7854 H         1 <0>         0.0940
     37 H6          1.6087   -9.9882    1.0013 H         1 <0>         0.0482
     38 H7          0.6116   -8.6877    1.7370 H         1 <0>         0.0478
     39 H8          0.1231  -10.9301    2.8462 H         1 <0>         0.4045
     40 H9         -3.6274   -7.3970    0.3309 H         1 <0>         0.1248
     41 H10        -3.8525   -4.9542    0.4751 H         1 <0>         0.1241
     42 H11         0.3870   -4.5433   -0.0530 H         1 <0>         0.1354
     43 H12         0.6009   -6.9878   -0.1863 H         1 <0>         0.1212
     44 H13        -2.8683   -2.6660    0.4579 H         1 <0>         0.1114
     45 H14        -1.9401   -0.5201    0.4412 H         1 <0>         0.3896
     46 H15        -2.1240    1.2329    0.5364 H         1 <0>         0.1050
     47 H16        -2.3317    3.6748    0.6862 H         1 <0>         0.1079
     48 H17        -0.3384    5.1040    0.5009 H         1 <0>         0.1087
     49 H18         1.8806    4.1042    0.1738 H         1 <0>         0.1518
     50 H19         4.2926    0.3181    3.0180 H         1 <0>         0.1396
     51 H20         3.7382    0.6703    5.4078 H         1 <0>         0.1316
     52 H21         2.5505    2.8829    6.0224 H         1 <0>         0.1839
@<TRIPOS>BOND
     1    1    2 1
     2    1   32 1
     3    1   33 1
     4    1   34 1
     5    2    3 1
     6    2    6 1
     7    3    4 1
     8    3   35 1
     9    3   36 1
    10    4    5 1
    11    4   37 1
    12    4   38 1
    13    5   39 1
    14    6   11 ar
    15    6    7 ar
    16    7    8 ar
    17    7   40 1
    18    8    9 ar
    19    8   41 1
    20    9   10 ar
    21    9   12 1
    22   10   11 ar
    23   10   42 1
    24   11   43 1
    25   12   13 2
    26   12   44 1
    27   13   14 1
    28   14   15 am
    29   14   45 1
    30   15   16 2
    31   15   17 1
    32   17   22 ar
    33   17   18 ar
    34   18   19 ar
    35   18   46 1
    36   19   20 ar
    37   19   47 1
    38   20   21 ar
    39   20   48 1
    40   21   22 ar
    41   21   49 1
    42   22   23 1
    43   23   24 1
    44   24   25 2
    45   24   26 2
    46   24   27 1
    47   27   31 1
    48   27   28 2
    49   28   29 1
    50   28   50 1
    51   29   30 2
    52   29   51 1
    53   30   31 1
    54   30   52 1
@<TRIPOS>MOLECULE
ZINC32522911
   54    56     0     0     0
SMALL
USER_CHARGES
ethyl 2-[[2-[[5-(2-hydroxyethyl)-4-methyl-6-oxo-1H-pyrimidin-2-yl]sulfanyl]acetyl]amino]-4,5,6,7-tetrahydrobenzothiophene-3-carboxylate
@<TRIPOS>ATOM
      1 C1          9.2344    5.2581    6.6908 C.3       1 <0>        -0.1547
      2 C2          8.1194    5.2806    7.7383 C.3       1 <0>         0.0558
      3 O1          7.9055    3.9375    8.2464 O.3       1 <0>        -0.3501
      4 C3          6.9490    3.7827    9.1847 C.2       1 <0>         0.5356
      5 O2          6.3111    4.7452    9.5674 O.2       1 <0>        -0.4972
      6 C4          6.6783    2.4561    9.7427 C.2       1 <0>        -0.2241
      7 C5          7.3771    1.9781   10.9241 C.2       1 <0>        -0.0599
      8 C6          7.0384    0.7351   11.3290 C.2       1 <0>        -0.2182
      9 S1          5.8073    0.2019   10.1739 S.3       1 <0>         0.2426
     10 C7          5.7415    1.6091    9.1652 C.2       1 <0>         0.1026
     11 N1          4.9504    1.8327    8.0492 N.am      1 <0>        -0.6331
     12 C8          4.0935    0.8811    7.6290 C.2       1 <0>         0.5316
     13 O3          4.0147   -0.1709    8.2273 O.2       1 <0>        -0.4831
     14 C9          3.2333    1.1242    6.4158 C.3       1 <0>        -0.1406
     15 S2          2.1986   -0.3287    6.1088 S.3       1 <0>         0.0363
     16 C10         1.3238    0.2150    4.6792 C.ar      1 <0>         0.3191
     17 N2          0.4065   -0.6094    4.1018 N.ar      1 <0>        -0.6337
     18 C11        -0.2712   -0.1971    3.0092 C.ar      1 <0>         0.5026
     19 O4         -1.1002   -0.9207    2.4820 O.3       1 <0>        -0.6107
     20 C12         0.0000    1.0800    2.4877 C.ar      1 <0>        -0.3432
     21 C13         0.9303    1.8627    3.1086 C.ar      1 <0>         0.1807
     22 N3          1.5686    1.4139    4.1863 N.ar      1 <0>        -0.6291
     23 C14         1.2349    3.2378    2.5723 C.3       1 <0>        -0.0946
     24 C15        -0.7244    1.5768    1.2632 C.3       1 <0>        -0.0314
     25 C16        -0.0060    1.0779    0.0080 C.3       1 <0>         0.0951
     26 O5         -0.6930    1.5490   -1.1531 O.3       1 <0>        -0.6057
     27 C17         7.5927   -0.0155   12.5004 C.3       1 <0>        -0.0350
     28 C18         8.8778    0.6874   12.9613 C.3       1 <0>        -0.1140
     29 C19         8.6061    2.1905   13.0703 C.3       1 <0>        -0.1175
     30 C20         8.4265    2.7892   11.6740 C.3       1 <0>        -0.0635
     31 H1          9.3964    6.2758    6.3059 H         1 <0>         0.0808
     32 H2          8.9459    4.5944    5.8625 H         1 <0>         0.0688
     33 H3         10.1624    4.8881    7.1511 H         1 <0>         0.0668
     34 H4          8.4078    5.9444    8.5667 H         1 <0>         0.0704
     35 H5          7.1913    5.6507    7.2781 H         1 <0>         0.0722
     36 H6          5.0218    2.7869    7.5066 H         1 <0>         0.4474
     37 H7          2.5920    2.0007    6.5907 H         1 <0>         0.1283
     38 H8          3.8754    1.3083    5.5419 H         1 <0>         0.1282
     39 H9          2.0038    3.7136    3.1986 H         1 <0>         0.0631
     40 H10         0.3200    3.8483    2.5877 H         1 <0>         0.0665
     41 H11         1.6031    3.1551    1.5391 H         1 <0>         0.0639
     42 H12        -0.7370    2.6768    1.2657 H         1 <0>         0.0557
     43 H13        -1.7573    1.1984    1.2695 H         1 <0>         0.0656
     44 H14         1.0268    1.4564    0.0017 H         1 <0>         0.0305
     45 H15         0.0066   -0.0221    0.0054 H         1 <0>         0.0423
     46 H16        -0.3210    1.2898   -2.1553 H         1 <0>         0.3937
     47 H17         6.8537   -0.0213   13.3152 H         1 <0>         0.0821
     48 H18         7.8161   -1.0500   12.2007 H         1 <0>         0.0816
     49 H19         9.1810    0.2913   13.9417 H         1 <0>         0.0729
     50 H20         9.6782    0.5054   12.2290 H         1 <0>         0.0687
     51 H21         7.6903    2.3560   13.6567 H         1 <0>         0.0680
     52 H22         9.4547    2.6813   13.5693 H         1 <0>         0.0691
     53 H23         9.3797    2.7510   11.1264 H         1 <0>         0.0785
     54 H24         8.0926    3.8340   11.7563 H         1 <0>         0.0722
@<TRIPOS>BOND
     1    1    2 1
     2    1   31 1
     3    1   32 1
     4    1   33 1
     5    2    3 1
     6    2   34 1
     7    2   35 1
     8    3    4 1
     9    4    5 2
    10    4    6 1
    11    6   10 2
    12    6    7 1
    13    7   30 1
    14    7    8 2
    15    8    9 1
    16    8   27 1
    17    9   10 1
    18   10   11 1
    19   11   12 am
    20   11   36 1
    21   12   13 2
    22   12   14 1
    23   14   37 1
    24   14   38 1
    25   14   15 1
    26   15   16 1
    27   16   22 ar
    28   16   17 ar
    29   17   18 ar
    30   18   19 1
    31   18   20 ar
    32   20   24 1
    33   20   21 ar
    34   21   22 ar
    35   21   23 1
    36   23   39 1
    37   23   40 1
    38   23   41 1
    39   24   25 1
    40   24   42 1
    41   24   43 1
    42   25   26 1
    43   25   44 1
    44   25   45 1
    45   26   46 1
    46   27   28 1
    47   27   47 1
    48   27   48 1
    49   28   29 1
    50   28   49 1
    51   28   50 1
    52   29   30 1
    53   29   51 1
    54   29   52 1
    55   30   53 1
    56   30   54 1
@<TRIPOS>MOLECULE
ZINC46132790
   51    53     0     0     0
SMALL
USER_CHARGES

@<TRIPOS>ATOM
      1 C1         -7.1568   -2.1483    7.7592 C.3       1 <0>        -0.1703
      2 C2         -6.3711   -3.0044    6.7996 C.2       1 <0>         0.5003
      3 O1         -6.9157   -3.9174    6.2157 O.2       1 <0>        -0.5153
      4 N1         -5.0631   -2.7556    6.5902 N.am      1 <0>        -0.6738
      5 C3         -4.3099   -3.6095    5.7765 C.ar      1 <0>         0.1140
      6 C4         -2.9800   -3.8698    6.0854 C.ar      1 <0>        -0.1417
      7 C5         -2.2322   -4.7120    5.2845 C.ar      1 <0>        -0.1249
      8 C6         -2.8012   -5.2999    4.1727 C.ar      1 <0>        -0.0780
      9 C7         -4.1353   -5.0451    3.8547 C.ar      1 <0>        -0.0655
     10 C8         -4.8916   -4.2002    4.6657 C.ar      1 <0>        -0.0777
     11 C9         -4.7481   -5.6748    2.6623 C.2       1 <0>         0.5082
     12 O2         -5.8831   -5.3796    2.3331 O.2       1 <0>        -0.6033
     13 N2         -4.0542   -6.5689    1.9459 N.2       1 <0>        -0.6951
     14 C10        -4.6196   -7.1698    0.9099 C.2       1 <0>         0.6091
     15 N3         -5.6663   -6.5767    0.2645 N.pl3     1 <0>        -0.7169
     16 C11        -5.6782   -5.1904    0.0785 C.ar      1 <0>         0.2803
     17 C12        -4.4831   -4.4834    0.0374 C.ar      1 <0>        -0.1622
     18 C13        -4.4978   -3.1149   -0.1463 C.ar      1 <0>        -0.0804
     19 C14        -5.7006   -2.4474   -0.2888 C.ar      1 <0>        -0.1604
     20 C15        -6.8928   -3.1482   -0.2479 C.ar      1 <0>        -0.0472
     21 C16        -6.8843   -4.5190   -0.0710 C.ar      1 <0>        -0.1386
     22 Br1        -8.5350   -2.2308   -0.4420 Br        1 <0>        -0.0803
     23 N4         -4.1563   -8.3813    0.4878 N.2       1 <0>        -0.6445
     24 C17        -4.7058   -8.9939   -0.7242 C.3       1 <0>         0.0683
     25 C18        -4.1073  -10.3902   -0.9062 C.3       1 <0>         0.1037
     26 H1         -3.0221  -10.3204   -0.9805 H         1 <0>         0.0762
     27 C19        -4.6788  -11.0425   -2.1835 C.3       1 <0>        -0.1521
     28 C20        -4.8716  -12.5188   -1.7416 C.3       1 <0>        -0.1553
     29 C21        -5.2570  -12.3322   -0.2525 C.3       1 <0>         0.0455
     30 O3         -4.4659  -11.2212    0.2040 O.3       1 <0>        -0.3572
     31 H2         -8.1884   -2.4981    7.7971 H         1 <0>         0.0935
     32 H3         -6.7135   -2.2156    8.7527 H         1 <0>         0.0876
     33 H4         -7.1366   -1.1120    7.4217 H         1 <0>         0.0881
     34 H5         -4.6439   -1.9846    7.0035 H         1 <0>         0.4061
     35 H6         -2.5295   -3.4123    6.9539 H         1 <0>         0.1166
     36 H7         -1.1991   -4.9105    5.5291 H         1 <0>         0.1218
     37 H8         -2.2134   -5.9569    3.5489 H         1 <0>         0.1406
     38 H9         -5.9262   -4.0029    4.4266 H         1 <0>         0.1422
     39 H10        -6.4016   -7.1166   -0.0651 H         1 <0>         0.3838
     40 H11        -3.5433   -5.0037    0.1493 H         1 <0>         0.1274
     41 H12        -3.5688   -2.5650   -0.1783 H         1 <0>         0.1190
     42 H13        -5.7092   -1.3770   -0.4320 H         1 <0>         0.1166
     43 H14        -7.8149   -5.0665   -0.0443 H         1 <0>         0.1169
     44 H15        -5.7892   -9.0721   -0.6326 H         1 <0>         0.0160
     45 H16        -4.4578   -8.3768   -1.5877 H         1 <0>         0.0305
     46 H17        -5.6329  -10.5914   -2.4558 H         1 <0>         0.0728
     47 H18        -3.9670  -10.9736   -3.0061 H         1 <0>         0.0767
     48 H19        -5.6785  -12.9938   -2.2997 H         1 <0>         0.0755
     49 H20        -3.9438  -13.0825   -1.8396 H         1 <0>         0.0746
     50 H21        -6.3190  -12.1038   -0.1623 H         1 <0>         0.0513
     51 H22        -5.0125  -13.2290    0.3168 H         1 <0>         0.0771
@<TRIPOS>BOND
     1    1    2 1
     2    1   31 1
     3    1   32 1
     4    1   33 1
     5    2    3 2
     6    2    4 am
     7    4    5 1
     8    4   34 1
     9    5   10 ar
    10    5    6 ar
    11    6    7 ar
    12    6   35 1
    13    7    8 ar
    14    7   36 1
    15    8    9 ar
    16    8   37 1
    17    9   10 ar
    18    9   11 1
    19   10   38 1
    20   11   13 1
    21   11   12 2
    22   13   14 2
    23   14   15 1
    24   14   23 1
    25   15   16 1
    26   15   39 1
    27   16   21 ar
    28   16   17 ar
    29   17   18 ar
    30   17   40 1
    31   18   19 ar
    32   18   41 1
    33   19   20 ar
    34   19   42 1
    35   20   21 ar
    36   20   22 1
    37   21   43 1
    38   23   24 1
    39   24   25 1
    40   24   44 1
    41   24   45 1
    42   25   26 1
    43   25   30 1
    44   25   27 1
    45   27   28 1
    46   27   46 1
    47   27   47 1
    48   28   29 1
    49   28   48 1
    50   28   49 1
    51   29   30 1
    52   29   50 1
    53   29   51 1
@<TRIPOS>MOLECULE
ZINC08896318
   57    61     0     0     0
SMALL
USER_CHARGES
N-(2,5-dioxo-4,4-diphenyl-imidazolidin-1-yl)-4-(2-oxobenzooxazol-3-yl)-butanamide
@<TRIPOS>ATOM
      1 C1          4.7180   -1.8855    7.3395 C.ar      1 <0>        -0.1048
      2 C2          3.6013   -2.6973    7.4111 C.ar      1 <0>        -0.1139
      3 C3          2.3429   -2.1606    7.2132 C.ar      1 <0>        -0.0981
      4 C4          2.2010   -0.8122    6.9441 C.ar      1 <0>        -0.0986
      5 C5          3.3180   -0.0014    6.8673 C.ar      1 <0>        -0.0927
      6 C6          4.5761   -0.5372    7.0695 C.ar      1 <0>        -0.1155
      7 C7          0.8290   -0.2272    6.7283 C.3       1 <0>         0.2309
      8 C8          0.0392   -1.0600    5.7383 C.2       1 <0>         0.5448
      9 O1         -0.2882   -2.2215    5.8553 O.2       1 <0>        -0.4410
     10 N1         -0.2218   -0.2414    4.7000 N.am      1 <0>        -0.3752
     11 C9          0.2816    0.9823    4.8978 C.2       1 <0>         0.7126
     12 O2          0.1710    1.8950    4.1028 O.2       1 <0>        -0.5156
     13 N2          0.9240    1.0897    6.0749 N.am      1 <0>        -0.7090
     14 N3         -0.9372   -0.6229    3.5575 N.am      1 <0>        -0.5055
     15 C10        -0.2869   -0.8442    2.3979 C.2       1 <0>         0.5213
     16 O3          0.9176   -0.7130    2.3435 O.2       1 <0>        -0.5047
     17 C11        -1.0564   -1.2546    1.1689 C.3       1 <0>        -0.1232
     18 C12        -0.0879   -1.4401   -0.0009 C.3       1 <0>        -0.1274
     19 C13        -0.8691   -1.8568   -1.2487 C.3       1 <0>         0.1323
     20 N4          0.0583   -2.0344   -2.3688 N.am      1 <0>        -0.5455
     21 C14         0.7108   -3.2159   -2.7199 C.ar      1 <0>         0.0706
     22 C15         0.7113   -4.4966   -2.1896 C.ar      1 <0>        -0.1010
     23 C16         1.4827   -5.4819   -2.7744 C.ar      1 <0>        -0.0970
     24 C17         2.2538   -5.1935   -3.8870 C.ar      1 <0>        -0.1073
     25 C18         2.2583   -3.9197   -4.4209 C.ar      1 <0>        -0.0776
     26 C19         1.4874   -2.9243   -3.8410 C.ar      1 <0>         0.0337
     27 O4          1.2946   -1.6151   -4.1348 O.3       1 <0>        -0.2359
     28 C20         0.4323   -1.0873   -3.2518 C.2       1 <0>         0.6356
     29 O5          0.0501    0.0670   -3.2474 O.2       1 <0>        -0.4818
     30 C21         0.0893   -0.1177    8.0367 C.ar      1 <0>        -0.1001
     31 C22        -0.3411   -1.2601    8.6851 C.ar      1 <0>        -0.0952
     32 C23        -1.0158   -1.1599    9.8874 C.ar      1 <0>        -0.1138
     33 C24        -1.2680    0.0832   10.4369 C.ar      1 <0>        -0.1050
     34 C25        -0.8422    1.2259    9.7859 C.ar      1 <0>        -0.1161
     35 C26        -0.1637    1.1255    8.5857 C.ar      1 <0>        -0.0956
     36 H1          5.7011   -2.3046    7.4949 H         1 <0>         0.1282
     37 H2          3.7121   -3.7506    7.6220 H         1 <0>         0.1300
     38 H3          1.4705   -2.7948    7.2691 H         1 <0>         0.1335
     39 H4          3.2074    1.0513    6.6527 H         1 <0>         0.1237
     40 H5          5.4485    0.0971    7.0139 H         1 <0>         0.1296
     41 H6          1.3635    1.8802    6.4253 H         1 <0>         0.4456
     42 H7         -1.9005   -0.7278    3.6009 H         1 <0>         0.4288
     43 H8         -1.7829   -0.4810    0.9199 H         1 <0>         0.1118
     44 H9         -1.5765   -2.1928    1.3623 H         1 <0>         0.1100
     45 H10         0.6386   -2.2136    0.2480 H         1 <0>         0.0819
     46 H11         0.4322   -0.5019   -0.1943 H         1 <0>         0.0844
     47 H12        -1.3892   -2.7950   -1.0553 H         1 <0>         0.0982
     48 H13        -1.5956   -1.0832   -1.4977 H         1 <0>         0.1026
     49 H14         0.1105   -4.7233   -1.3213 H         1 <0>         0.1351
     50 H15         1.4841   -6.4802   -2.3623 H         1 <0>         0.1405
     51 H16         2.8546   -5.9683   -4.3400 H         1 <0>         0.1433
     52 H17         2.8619   -3.6994   -5.2890 H         1 <0>         0.1423
     53 H18        -0.1473   -2.2312    8.2539 H         1 <0>         0.1332
     54 H19        -1.3482   -2.0527   10.3962 H         1 <0>         0.1302
     55 H20        -1.7975    0.1617   11.3749 H         1 <0>         0.1282
     56 H21        -1.0393    2.1972   10.2152 H         1 <0>         0.1296
     57 H22         0.1690    2.0183    8.0771 H         1 <0>         0.1249
@<TRIPOS>BOND
     1    1    6 ar
     2    1    2 ar
     3    1   36 1
     4    2    3 ar
     5    2   37 1
     6    3    4 ar
     7    3   38 1
     8    4    5 ar
     9    4    7 1
    10    5    6 ar
    11    5   39 1
    12    6   40 1
    13    7   13 1
    14    7    8 1
    15    7   30 1
    16    8    9 2
    17    8   10 am
    18   10   11 am
    19   10   14 1
    20   11   12 2
    21   11   13 am
    22   13   41 1
    23   14   15 am
    24   14   42 1
    25   15   16 2
    26   15   17 1
    27   17   18 1
    28   17   43 1
    29   17   44 1
    30   18   19 1
    31   18   45 1
    32   18   46 1
    33   19   20 1
    34   19   47 1
    35   19   48 1
    36   20   28 am
    37   20   21 1
    38   21   26 ar
    39   21   22 ar
    40   22   23 ar
    41   22   49 1
    42   23   24 ar
    43   23   50 1
    44   24   25 ar
    45   24   51 1
    46   25   26 ar
    47   25   52 1
    48   26   27 1
    49   27   28 1
    50   28   29 2
    51   30   35 ar
    52   30   31 ar
    53   31   32 ar
    54   31   53 1
    55   32   33 ar
    56   32   54 1
    57   33   34 ar
    58   33   55 1
    59   34   35 ar
    60   34   56 1
    61   35   57 1
@<TRIPOS>MOLECULE
ZINC11854648
   59    63     0     0     0
SMALL
USER_CHARGES
(3R)-N-[2-(4-ethyl-6-oxo-1H-pyrimidin-2-yl)-5-(2-thienyl)pyrazol-3-yl]-5-oxo-1-(p-tolyl)pyrrolidine-3-carboxamide
@<TRIPOS>ATOM
      1 C1          2.6911   12.2293    1.4707 C.3       1 <0>        -0.1481
      2 C2          2.2401   11.9791    0.0302 C.3       1 <0>        -0.0774
      3 C3          1.1683   10.9197    0.0164 C.2       1 <0>         0.2117
      4 C4         -0.1468   11.2813    0.0211 C.2       1 <0>        -0.2980
      5 C5         -1.1285   10.2727    0.0083 C.2       1 <0>         0.5375
      6 O1         -2.3145   10.5589    0.0117 O.2       1 <0>        -0.5196
      7 N1         -0.7317    8.9822   -0.0081 N.am      1 <0>        -0.6231
      8 H1         -1.3908    8.2705   -0.0168 H         1 <0>         0.4292
      9 C6          0.5947    8.6836   -0.0120 C.2       1 <0>         0.6574
     10 N2          1.5066    9.6315    0.0053 N.2       1 <0>        -0.5787
     11 N3          0.9918    7.3608   -0.0289 N.pl3     1 <0>        -0.3498
     12 C7          2.2812    6.9094   -0.0348 C.2       1 <0>         0.3583
     13 C8          2.2429    5.5532   -0.0520 C.2       1 <0>        -0.2490
     14 C9          0.8879    5.1596   -0.0569 C.2       1 <0>         0.2260
     15 N4          0.1435    6.2465   -0.0487 N.2       1 <0>        -0.2754
     16 C10         0.3897    3.7679   -0.0745 C.2       1 <0>        -0.1184
     17 C11        -0.9021    3.3139   -0.0805 C.2       1 <0>        -0.1037
     18 C12        -1.1264    1.9548   -0.1036 C.2       1 <0>        -0.1663
     19 C13        -0.0642    1.1091   -0.1095 C.2       1 <0>        -0.1569
     20 S1          1.3158    2.2416   -0.0946 S.3       1 <0>         0.1110
     21 N5          3.4288    7.6993   -0.0253 N.am      1 <0>        -0.6348
     22 C14         4.6457    7.1200   -0.0327 C.2       1 <0>         0.5253
     23 O2          4.7417    5.9110   -0.0477 O.2       1 <0>        -0.4878
     24 C15         5.8870    7.9744   -0.0224 C.3       1 <0>        -0.1182
     25 H2          5.9387    8.5728    0.8872 H         1 <0>         0.1445
     26 C16         5.9513    8.8721   -1.2798 C.3       1 <0>        -0.1473
     27 C17         6.7694    8.0695   -2.2672 C.2       1 <0>         0.5146
     28 O3          6.8234    8.2826   -3.4600 O.2       1 <0>        -0.5007
     29 N6          7.4285    7.0863   -1.6302 N.am      1 <0>        -0.5535
     30 C18         7.1555    7.1085   -0.1884 C.3       1 <0>         0.1084
     31 C19         8.2668    6.1603   -2.2608 C.ar      1 <0>         0.1586
     32 C20         8.3643    6.1404   -3.6460 C.ar      1 <0>        -0.1503
     33 C21         9.1970    5.2290   -4.2651 C.ar      1 <0>        -0.0924
     34 C22         9.9241    4.3289   -3.5079 C.ar      1 <0>        -0.1085
     35 C23         9.8252    4.3426   -2.1287 C.ar      1 <0>        -0.0933
     36 C24         8.9986    5.2554   -1.5032 C.ar      1 <0>        -0.1487
     37 C25        10.8266    3.3313   -4.1871 C.3       1 <0>        -0.1132
     38 H3          1.8409   12.5648    2.0645 H         1 <0>         0.0604
     39 H4          3.0875   11.3059    1.8929 H         1 <0>         0.0596
     40 H5          3.4663   12.9956    1.4807 H         1 <0>         0.0709
     41 H6          3.0903   11.6436   -0.5636 H         1 <0>         0.0903
     42 H7          1.8437   12.9025   -0.3920 H         1 <0>         0.0949
     43 H8         -0.4300   12.3234    0.0347 H         1 <0>         0.1654
     44 H9          3.0973    4.8927   -0.0602 H         1 <0>         0.1953
     45 H10        -1.7294    4.0081   -0.0714 H         1 <0>         0.1411
     46 H11        -2.1342    1.5669   -0.1137 H         1 <0>         0.1418
     47 H12        -0.0561    0.0293   -0.1243 H         1 <0>         0.1935
     48 H13         3.3520    8.6662   -0.0133 H         1 <0>         0.4326
     49 H14         4.9502    9.0525   -1.6713 H         1 <0>         0.1116
     50 H15         6.4478    9.8150   -1.0503 H         1 <0>         0.1311
     51 H16         7.9918    7.5582    0.3470 H         1 <0>         0.0988
     52 H17         6.9727    6.0978    0.1766 H         1 <0>         0.1103
     53 H18         7.7927    6.8397   -4.2382 H         1 <0>         0.1528
     54 H19         9.2764    5.2157   -5.3421 H         1 <0>         0.1261
     55 H20        10.3946    3.6386   -1.5400 H         1 <0>         0.1269
     56 H21         8.9218    5.2656   -0.4260 H         1 <0>         0.1260
     57 H22        10.2665    2.4207   -4.3999 H         1 <0>         0.0696
     58 H23        11.1996    3.7548   -5.1196 H         1 <0>         0.0657
     59 H24        11.6664    3.0968   -3.5330 H         1 <0>         0.0657
@<TRIPOS>BOND
     1    1    2 1
     2    1   38 1
     3    1   39 1
     4    1   40 1
     5    2    3 1
     6    2   41 1
     7    2   42 1
     8    3   10 1
     9    3    4 2
    10    4    5 1
    11    4   43 1
    12    5    6 2
    13    5    7 am
    14    7    8 1
    15    7    9 1
    16    9   10 2
    17    9   11 1
    18   11   15 1
    19   11   12 1
    20   12   13 2
    21   12   21 1
    22   13   14 1
    23   13   44 1
    24   14   15 2
    25   14   16 1
    26   16   20 1
    27   16   17 2
    28   17   18 1
    29   17   45 1
    30   18   19 2
    31   18   46 1
    32   19   20 1
    33   19   47 1
    34   21   22 am
    35   21   48 1
    36   22   23 2
    37   22   24 1
    38   24   25 1
    39   24   30 1
    40   24   26 1
    41   26   27 1
    42   26   49 1
    43   26   50 1
    44   27   28 2
    45   27   29 am
    46   29   30 1
    47   29   31 1
    48   30   51 1
    49   30   52 1
    50   31   36 ar
    51   31   32 ar
    52   32   33 ar
    53   32   53 1
    54   33   34 ar
    55   33   54 1
    56   34   35 ar
    57   34   37 1
    58   35   36 ar
    59   35   55 1
    60   36   56 1
    61   37   57 1
    62   37   58 1
    63   37   59 1
@<TRIPOS>MOLECULE
ZINC15995707
   60    64     0     0     0
SMALL
USER_CHARGES
2-[(4R)-4-methyl-2,5-dioxo-4-phenyl-imidazolidin-1-yl]-N-[4-(6,7,8,9-tetrahydro-5H-[1,2,4]triazolo[4,5-a]azepin-3-yl)phenyl]acetamide
@<TRIPOS>ATOM
      1 C1          5.2094   -6.4828    0.6129 C.3       1 <0>        -0.1446
      2 C2          5.4058   -6.9775   -0.8215 C.3       1 <0>         0.1712
      3 C3          4.1127   -6.8686   -1.6049 C.2       1 <0>         0.5428
      4 O1          3.0632   -7.4271   -1.3673 O.2       1 <0>        -0.4532
      5 N1          4.3721   -6.0211   -2.6202 N.am      1 <0>        -0.5615
      6 C4          5.6376   -5.5879   -2.5903 C.2       1 <0>         0.7119
      7 O2          6.1077   -4.8186   -3.4053 O.2       1 <0>        -0.5349
      8 N2          6.3304   -6.0961   -1.5551 N.am      1 <0>        -0.7137
      9 C5          3.3913   -5.6278   -3.6349 C.3       1 <0>         0.1006
     10 C6          2.6544   -4.3978   -3.1710 C.2       1 <0>         0.5034
     11 O3          2.9222   -3.8989   -2.0984 O.2       1 <0>        -0.5038
     12 N3          1.6979   -3.8521   -3.9481 N.am      1 <0>        -0.6686
     13 C7          1.0942   -2.6489   -3.5722 C.ar      1 <0>         0.1604
     14 C8          1.8389   -1.6738   -2.9187 C.ar      1 <0>        -0.1142
     15 C9          1.2467   -0.4862   -2.5472 C.ar      1 <0>        -0.0937
     16 C10        -0.1025   -0.2632   -2.8274 C.ar      1 <0>        -0.0290
     17 C11        -0.8491   -1.2469   -3.4783 C.ar      1 <0>        -0.0532
     18 C12        -0.2497   -2.4300   -3.8523 C.ar      1 <0>        -0.1372
     19 C13        -0.7410    1.0100   -2.4302 C.2       1 <0>         0.2164
     20 N4         -1.8549    1.5153   -2.9176 N.2       1 <0>        -0.2792
     21 N5         -2.1160    2.6336   -2.3363 N.2       1 <0>        -0.2890
     22 C14        -1.1969    2.9003   -1.4516 C.2       1 <0>         0.1870
     23 N6         -0.2892    1.8880   -1.4882 N.pl3     1 <0>        -0.4670
     24 C15         0.9259    1.7778   -0.6814 C.3       1 <0>         0.0963
     25 C16         0.7237    2.5180    0.6440 C.3       1 <0>        -0.1415
     26 C17         1.1418    3.9788    0.4880 C.3       1 <0>        -0.1257
     27 C18         0.2827    4.6740   -0.5636 C.3       1 <0>        -0.1245
     28 C19        -1.1348    4.0946   -0.5348 C.3       1 <0>        -0.0374
     29 C20         5.9107   -8.3974   -0.8265 C.ar      1 <0>        -0.0998
     30 C21         5.0161   -9.4489   -0.8982 C.ar      1 <0>        -0.1099
     31 C22         5.4796  -10.7512   -0.9077 C.ar      1 <0>        -0.1135
     32 C23         6.8370  -11.0023   -0.8352 C.ar      1 <0>        -0.1084
     33 C24         7.7312   -9.9510   -0.7577 C.ar      1 <0>        -0.1170
     34 C25         7.2681   -8.6486   -0.7536 C.ar      1 <0>        -0.0964
     35 H1          4.4557   -7.0948    1.1084 H         1 <0>         0.0870
     36 H2          6.1519   -6.5575    1.1553 H         1 <0>         0.0836
     37 H3          4.8807   -5.4437    0.5970 H         1 <0>         0.0762
     38 H4          7.2586   -5.9190   -1.3362 H         1 <0>         0.4416
     39 H5          2.6813   -6.4405   -3.7883 H         1 <0>         0.1323
     40 H6          3.9046   -5.4120   -4.5720 H         1 <0>         0.1362
     41 H7          1.4285   -4.2945   -4.7682 H         1 <0>         0.4167
     42 H8          2.8827   -1.8469   -2.7022 H         1 <0>         0.1389
     43 H9          1.8259    0.2712   -2.0401 H         1 <0>         0.1297
     44 H10        -1.8943   -1.0790   -3.6924 H         1 <0>         0.1428
     45 H11        -0.8257   -3.1896   -4.3599 H         1 <0>         0.1374
     46 H12         1.1366    0.7269   -0.4827 H         1 <0>         0.1017
     47 H13         1.7627    2.2208   -1.2215 H         1 <0>         0.0924
     48 H14        -0.3273    2.4706    0.9290 H         1 <0>         0.0822
     49 H15         1.3301    2.0478    1.4181 H         1 <0>         0.0909
     50 H16         2.1876    4.0225    0.1839 H         1 <0>         0.0707
     51 H17         1.0243    4.4903    1.4434 H         1 <0>         0.0756
     52 H18         0.7189    4.5171   -1.5501 H         1 <0>         0.0651
     53 H19         0.2425    5.7423   -0.3509 H         1 <0>         0.0831
     54 H20        -1.8444    4.8502   -0.8718 H         1 <0>         0.1028
     55 H21        -1.3840    3.7878    0.4810 H         1 <0>         0.0944
     56 H22         3.9554   -9.2528   -0.9507 H         1 <0>         0.1396
     57 H23         4.7809  -11.5726   -0.9678 H         1 <0>         0.1285
     58 H24         7.1989  -12.0199   -0.8388 H         1 <0>         0.1268
     59 H25         8.7917  -10.1472   -0.7008 H         1 <0>         0.1282
     60 H26         7.9667   -7.8272   -0.6930 H         1 <0>         0.1225
@<TRIPOS>BOND
     1    1    2 1
     2    1   35 1
     3    1   36 1
     4    1   37 1
     5    2    8 1
     6    2    3 1
     7    2   29 1
     8    3    4 2
     9    3    5 am
    10    5    6 am
    11    5    9 1
    12    6    7 2
    13    6    8 am
    14    8   38 1
    15    9   10 1
    16    9   39 1
    17    9   40 1
    18   10   11 2
    19   10   12 am
    20   12   13 1
    21   12   41 1
    22   13   18 ar
    23   13   14 ar
    24   14   15 ar
    25   14   42 1
    26   15   16 ar
    27   15   43 1
    28   16   17 ar
    29   16   19 1
    30   17   18 ar
    31   17   44 1
    32   18   45 1
    33   19   23 1
    34   19   20 2
    35   20   21 1
    36   21   22 2
    37   22   28 1
    38   22   23 1
    39   23   24 1
    40   24   25 1
    41   24   46 1
    42   24   47 1
    43   25   26 1
    44   25   48 1
    45   25   49 1
    46   26   27 1
    47   26   50 1
    48   26   51 1
    49   27   28 1
    50   27   52 1
    51   27   53 1
    52   28   54 1
    53   28   55 1
    54   29   34 ar
    55   29   30 ar
    56   30   31 ar
    57   30   56 1
    58   31   32 ar
    59   31   57 1
    60   32   33 ar
    61   32   58 1
    62   33   34 ar
    63   33   59 1
    64   34   60 1
@<TRIPOS>MOLECULE
ZINC03431468
   57    59     0     0     0
SMALL
USER_CHARGES
[2-(isopropylcarbamoylamino)-2-oxo-ethyl] 3-[(2S)-2-methylindolin-1-yl]sulfonylbenzoate
@<TRIPOS>ATOM
      1 C1         -0.3646   -4.0800    2.4837 C.3       1 <0>        -0.1887
      2 C2         -1.1922   -5.3616    2.3681 C.3       1 <0>         0.1391
      3 H1         -0.5749   -6.1237    1.8699 H         1 <0>         0.1032
      4 C3         -1.6947   -5.7955    3.7549 C.3       1 <0>        -0.0769
      5 C4         -3.2021   -5.7692    3.6378 C.ar      1 <0>        -0.1244
      6 C5         -4.1879   -6.0665    4.5591 C.ar      1 <0>        -0.0759
      7 C6         -5.5208   -5.9650    4.2070 C.ar      1 <0>        -0.1401
      8 C7         -5.8662   -5.5647    2.9291 C.ar      1 <0>        -0.0850
      9 C8         -4.8865   -5.2671    2.0064 C.ar      1 <0>        -0.1543
     10 C9         -3.5375   -5.3672    2.3545 C.ar      1 <0>         0.1565
     11 N1         -2.4033   -5.1154    1.5808 N.pl3     1 <0>        -0.9332
     12 S1         -2.4235   -4.6179    0.0015 S.o2      1 <0>         2.6951
     13 O1         -3.6702   -5.0332   -0.5393 O.2       1 <0>        -0.9346
     14 O2         -1.1797   -5.0092   -0.5635 O.2       1 <0>        -0.9350
     15 C10        -2.4404   -2.8560    0.0105 C.ar      1 <0>        -0.6920
     16 C11        -3.6463   -2.1772    0.0261 C.ar      1 <0>         0.0203
     17 C12        -3.6687   -0.7940    0.0342 C.ar      1 <0>        -0.1452
     18 C13        -2.4871   -0.0817    0.0312 C.ar      1 <0>        -0.0014
     19 C14        -1.2671   -0.7600    0.0101 C.ar      1 <0>        -0.1447
     20 C15        -1.2518   -2.1564    0.0024 C.ar      1 <0>         0.0451
     21 C16         0.0021   -0.0041    0.0020 C.2       1 <0>         0.5161
     22 O3          1.0621   -0.5970   -0.0113 O.2       1 <0>        -0.4944
     23 O4         -0.0162    1.3429    0.0094 O.3       1 <0>        -0.3277
     24 C17         1.2684    2.0196    0.0008 C.3       1 <0>         0.0500
     25 C18         1.0507    3.5108    0.0109 C.2       1 <0>         0.5212
     26 O5         -0.0757    3.9589    0.0240 O.2       1 <0>        -0.4460
     27 N2          2.1083    4.3463    0.0053 N.am      1 <0>        -0.7019
     28 C19         1.9136    5.6799    0.0143 C.2       1 <0>         0.6986
     29 O6          0.7844    6.1291    0.0275 O.2       1 <0>        -0.5330
     30 N3          2.9712    6.5153    0.0087 N.am      1 <0>        -0.7447
     31 C20         2.7596    7.9649    0.0185 C.3       1 <0>         0.1544
     32 C21         3.9853    8.6552    0.6202 C.3       1 <0>        -0.1607
     33 C22         2.5478    8.4591   -1.4139 C.3       1 <0>        -0.1670
     34 H2          0.5401   -4.2800    3.0765 H         1 <0>         0.0894
     35 H3         -0.9626   -3.3008    2.9789 H         1 <0>         0.0693
     36 H4         -0.0763   -3.7378    1.4788 H         1 <0>         0.0633
     37 H5         -1.3187   -6.8040    3.9821 H         1 <0>         0.0944
     38 H6         -1.3302   -5.0885    4.5147 H         1 <0>         0.0948
     39 H7         -3.9165   -6.3793    5.5566 H         1 <0>         0.1266
     40 H8         -6.2904   -6.1973    4.9282 H         1 <0>         0.1284
     41 H9         -6.9073   -5.4848    2.6532 H         1 <0>         0.1315
     42 H10        -5.1630   -4.9547    1.0103 H         1 <0>         0.1416
     43 H11        -4.5742   -2.7299    0.0324 H         1 <0>         0.1495
     44 H12        -4.6133   -0.2705    0.0468 H         1 <0>         0.1490
     45 H13        -2.5060    0.9980    0.0417 H         1 <0>         0.1540
     46 H14        -0.3114   -2.6873   -0.0101 H         1 <0>         0.1573
     47 H15         1.8430    1.7269    0.8920 H         1 <0>         0.1132
     48 H16         1.8259    1.7365   -0.9042 H         1 <0>         0.1135
     49 H17         3.1303    3.9397   -0.0066 H         1 <0>         0.4357
     50 H18         3.9932    6.1087   -0.0032 H         1 <0>         0.4162
     51 H19         1.8666    8.1581    0.6310 H         1 <0>         0.0893
     52 H20         3.8264    9.7436    0.6275 H         1 <0>         0.0762
     53 H21         4.8732    8.4183    0.0156 H         1 <0>         0.0634
     54 H22         4.1375    8.2999    1.6501 H         1 <0>         0.0629
     55 H23         2.3889    9.5475   -1.4065 H         1 <0>         0.0686
     56 H24         1.6665    7.9628   -1.8464 H         1 <0>         0.0608
     57 H25         3.4357    8.2222   -2.0185 H         1 <0>         0.0581
@<TRIPOS>BOND
     1    1    2 1
     2    1   34 1
     3    1   35 1
     4    1   36 1
     5    2    3 1
     6    2   11 1
     7    2    4 1
     8    4    5 1
     9    4   37 1
    10    4   38 1
    11    5   10 ar
    12    5    6 ar
    13    6    7 ar
    14    6   39 1
    15    7    8 ar
    16    7   40 1
    17    8    9 ar
    18    8   41 1
    19    9   10 ar
    20    9   42 1
    21   10   11 1
    22   11   12 1
    23   12   13 2
    24   12   14 2
    25   12   15 1
    26   15   20 ar
    27   15   16 ar
    28   16   17 ar
    29   16   43 1
    30   17   18 ar
    31   17   44 1
    32   18   19 ar
    33   18   45 1
    34   19   20 ar
    35   19   21 1
    36   20   46 1
    37   21   22 2
    38   21   23 1
    39   23   24 1
    40   24   25 1
    41   24   47 1
    42   24   48 1
    43   25   26 2
    44   25   27 am
    45   27   28 am
    46   27   49 1
    47   28   29 2
    48   28   30 am
    49   30   31 1
    50   30   50 1
    51   31   32 1
    52   31   33 1
    53   31   51 1
    54   32   52 1
    55   32   53 1
    56   32   54 1
    57   33   55 1
    58   33   56 1
    59   33   57 1
@<TRIPOS>MOLECULE
ZINC45446444
   57    61     0     0     0
SMALL
USER_CHARGES

@<TRIPOS>ATOM
      1 C1         -0.0187    1.5258    0.0104 C.3       1 <0>        -0.1617
      2 C2          0.0021   -0.0041    0.0020 C.3       1 <0>        -0.1194
      3 C3          0.7182   -0.4975   -1.2568 C.3       1 <0>         0.1844
      4 C4          2.1440    0.0158   -1.2950 C.2       1 <0>         0.5390
      5 O1          3.0253   -0.2102   -0.4938 O.2       1 <0>        -0.4390
      6 N1          2.2283    0.7749   -2.4054 N.am      1 <0>        -0.3758
      7 C5          1.0661    0.8121   -3.0671 C.2       1 <0>         0.7096
      8 O2          0.8955    1.4317   -4.0987 O.2       1 <0>        -0.5191
      9 N2          0.1074    0.0868   -2.4633 N.am      1 <0>        -0.7062
     10 N3          3.3893    1.4430   -2.8157 N.am      1 <0>        -0.4972
     11 C6          4.1113    0.9668   -3.8493 C.2       1 <0>         0.5439
     12 O3          3.7560   -0.0403   -4.4242 O.2       1 <0>        -0.4934
     13 C7          5.3602    1.6855   -4.2906 C.3       1 <0>        -0.1484
     14 S1          6.1010    0.8051   -5.6930 S.3       1 <0>         0.1102
     15 C8          7.5310    1.7564   -6.0863 C.2       1 <0>         0.3593
     16 N4          7.8103    2.8321   -5.3779 N.2       1 <0>        -0.5000
     17 C9          8.8822    3.5667   -5.6537 C.2       1 <0>         0.1121
     18 C10         9.7599    3.2416   -6.6979 C.2       1 <0>        -0.2389
     19 C11        10.9047    4.1484   -6.8849 C.2       1 <0>        -0.0699
     20 C12        10.9984    5.1897   -6.0427 C.2       1 <0>        -0.1975
     21 S2          9.5920    5.0387   -4.9652 S.3       1 <0>         0.1836
     22 C13        12.2069    6.0417   -6.3244 C.3       1 <0>        -0.0321
     23 C14        13.1134    5.1506   -7.2018 C.3       1 <0>        -0.1174
     24 C15        12.0853    4.2087   -7.8584 C.3       1 <0>        -0.0631
     25 C16         9.4339    2.0699   -7.4505 C.2       1 <0>         0.5574
     26 O4         10.1417    1.7118   -8.3761 O.2       1 <0>        -0.5123
     27 N5          8.3362    1.3655   -7.1166 N.am      1 <0>        -0.5120
     28 C17         7.9964    0.1605   -7.8773 C.3       1 <0>         0.0594
     29 C18         0.6911   -2.0027   -1.3247 C.ar      1 <0>        -0.1086
     30 C19         0.6638   -2.7468   -0.1600 C.ar      1 <0>        -0.0901
     31 C20         0.6389   -4.1275   -0.2223 C.ar      1 <0>        -0.1182
     32 C21         0.6410   -4.7641   -1.4493 C.ar      1 <0>        -0.1025
     33 C22         0.6674   -4.0201   -2.6140 C.ar      1 <0>        -0.1167
     34 C23         0.6879   -2.6393   -2.5517 C.ar      1 <0>        -0.0933
     35 H1          1.0039    1.9031    0.0027 H         1 <0>         0.0509
     36 H2         -0.5459    1.8868   -0.8726 H         1 <0>         0.0639
     37 H3         -0.5289    1.8773    0.9072 H         1 <0>         0.0749
     38 H4          0.5293   -0.3651    0.8851 H         1 <0>         0.0964
     39 H5         -1.0205   -0.3814    0.0098 H         1 <0>         0.0973
     40 H6         -0.8075   -0.0291   -2.7638 H         1 <0>         0.4470
     41 H7          3.6735    2.2485   -2.3559 H         1 <0>         0.4327
     42 H8          5.1071    2.7018   -4.5924 H         1 <0>         0.1429
     43 H9          6.0715    1.7181   -3.4654 H         1 <0>         0.1425
     44 H10        11.9193    6.9424   -6.8668 H         1 <0>         0.0885
     45 H11        12.7139    6.3018   -5.3952 H         1 <0>         0.0827
     46 H12        13.6346    5.7440   -7.9530 H         1 <0>         0.0867
     47 H13        13.8204    4.5906   -6.5896 H         1 <0>         0.0780
     48 H14        12.5148    3.2159   -7.9921 H         1 <0>         0.0801
     49 H15        11.7625    4.6130   -8.8178 H         1 <0>         0.0829
     50 H16         7.0820   -0.2766   -7.4761 H         1 <0>         0.0952
     51 H17         7.8449    0.4225   -8.9244 H         1 <0>         0.0947
     52 H18         8.8095   -0.5610   -7.7973 H         1 <0>         0.0947
     53 H19         0.6622   -2.2493    0.7986 H         1 <0>         0.1317
     54 H20         0.6183   -4.7088    0.6877 H         1 <0>         0.1302
     55 H21         0.6223   -5.8429   -1.4979 H         1 <0>         0.1278
     56 H22         0.6693   -4.5175   -3.5726 H         1 <0>         0.1284
     57 H23         0.7048   -2.0579   -3.4617 H         1 <0>         0.1239
@<TRIPOS>BOND
     1    1    2 1
     2    1   35 1
     3    1   36 1
     4    1   37 1
     5    2    3 1
     6    2   38 1
     7    2   39 1
     8    3    9 1
     9    3    4 1
    10    3   29 1
    11    4    5 2
    12    4    6 am
    13    6    7 am
    14    6   10 1
    15    7    8 2
    16    7    9 am
    17    9   40 1
    18   10   11 am
    19   10   41 1
    20   11   12 2
    21   11   13 1
    22   13   14 1
    23   13   42 1
    24   13   43 1
    25   14   15 1
    26   15   27 1
    27   15   16 2
    28   16   17 1
    29   17   21 1
    30   17   18 2
    31   18   19 1
    32   18   25 1
    33   19   24 1
    34   19   20 2
    35   20   21 1
    36   20   22 1
    37   22   23 1
    38   22   44 1
    39   22   45 1
    40   23   24 1
    41   23   46 1
    42   23   47 1
    43   24   48 1
    44   24   49 1
    45   25   26 2
    46   25   27 am
    47   27   28 1
    48   28   50 1
    49   28   51 1
    50   28   52 1
    51   29   34 ar
    52   29   30 ar
    53   30   31 ar
    54   30   53 1
    55   31   32 ar
    56   31   54 1
    57   32   33 ar
    58   32   55 1
    59   33   34 ar
    60   33   56 1
    61   34   57 1
@<TRIPOS>MOLECULE
ZINC09018188
   59    63     0     0     0
SMALL
USER_CHARGES
2-[1-(4-fluorophenyl)-5-oxo-pyrrolidin-3-yl]-N-[5-methyl-2-(4-oxo-5,6,7,8-tetrahydro-3H-quinazolin-2-yl)-pyrazol-3-yl]-acetamide
@<TRIPOS>ATOM
      1 C1         -3.9219    3.6541   -7.7358 C.3       1 <0>        -0.0815
      2 C2         -3.2461    2.4192   -7.1979 C.2       1 <0>         0.1389
      3 C3         -2.7268    2.2685   -5.9074 C.2       1 <0>        -0.2610
      4 C4         -2.2018    1.0176   -5.8117 C.2       1 <0>         0.3515
      5 N1         -2.3847    0.4051   -7.0176 N.pl3     1 <0>        -0.3552
      6 N2         -3.0461    1.3088   -7.8591 N.2       1 <0>        -0.2941
      7 C5         -1.9902   -0.8781   -7.3484 C.2       1 <0>         0.6510
      8 N3         -2.2472   -1.3563   -8.5945 N.am      1 <0>        -0.6245
      9 H1         -2.7008   -0.8005   -9.2473 H         1 <0>         0.4291
     10 C6         -1.8619   -2.6070   -8.9180 C.2       1 <0>         0.5380
     11 O1         -2.0783   -3.0520  -10.0331 O.2       1 <0>        -0.5163
     12 C7         -1.2095   -3.3975   -7.9455 C.2       1 <0>        -0.2517
     13 C8         -0.9768   -2.8665   -6.7190 C.2       1 <0>         0.2068
     14 N4         -1.3786   -1.6165   -6.4528 N.2       1 <0>        -0.5827
     15 C9         -0.2686   -3.6239   -5.6267 C.3       1 <0>        -0.0701
     16 C10        -0.2758   -5.1228   -5.9201 C.3       1 <0>        -0.1208
     17 C11         0.2362   -5.3387   -7.3494 C.3       1 <0>        -0.1221
     18 C12        -0.8114   -4.7987   -8.3215 C.3       1 <0>        -0.0522
     19 N5         -1.5856    0.4654   -4.6912 N.am      1 <0>        -0.6392
     20 C13        -1.4677    1.1902   -3.5610 C.2       1 <0>         0.5195
     21 O2         -1.8982    2.3234   -3.5197 O.2       1 <0>        -0.4976
     22 C14        -0.8010    0.5927   -2.3488 C.3       1 <0>        -0.1263
     23 C15        -0.7981    1.6165   -1.2118 C.3       1 <0>        -0.0851
     24 H2         -0.3950    2.5710   -1.5501 H         1 <0>         0.1112
     25 C16        -2.2165    1.7919   -0.6215 C.3       1 <0>        -0.1457
     26 C17        -1.9810    1.9753    0.8616 C.2       1 <0>         0.5183
     27 O3         -2.7949    2.4172    1.6448 O.2       1 <0>        -0.5033
     28 N6         -0.7366    1.5774    1.1863 N.am      1 <0>        -0.5601
     29 C18        -0.0127    1.0858    0.0080 C.3       1 <0>         0.0988
     30 C19        -0.2010    1.6261    2.4792 C.ar      1 <0>         0.1563
     31 C20         1.0952    1.1859    2.7117 C.ar      1 <0>        -0.1308
     32 C21         1.6236    1.2401    3.9866 C.ar      1 <0>        -0.1242
     33 C22         0.8577    1.7224    5.0346 C.ar      1 <0>         0.0726
     34 C23        -0.4372    2.1566    4.8058 C.ar      1 <0>        -0.1219
     35 C24        -0.9673    2.1094    3.5314 C.ar      1 <0>        -0.1296
     36 F1          1.3746    1.7698    6.2819 F         1 <0>        -0.1395
     37 H3         -3.1768    4.3077   -8.1893 H         1 <0>         0.0902
     38 H4         -4.6587    3.3674   -8.4862 H         1 <0>         0.0818
     39 H5         -4.4191    4.1803   -6.9209 H         1 <0>         0.0905
     40 H6         -2.7402    3.0137   -5.1258 H         1 <0>         0.1922
     41 H7          0.7621   -3.2760   -5.5583 H         1 <0>         0.0955
     42 H8         -0.7726   -3.4411   -4.6777 H         1 <0>         0.0918
     43 H9         -1.2912   -5.5093   -5.8317 H         1 <0>         0.0709
     44 H10         0.3759   -5.6386   -5.2149 H         1 <0>         0.0800
     45 H11         0.3890   -6.4030   -7.5280 H         1 <0>         0.0765
     46 H12         1.1760   -4.8044   -7.4881 H         1 <0>         0.0683
     47 H13        -1.6913   -5.4416   -8.2954 H         1 <0>         0.0780
     48 H14        -0.3984   -4.7965   -9.3303 H         1 <0>         0.0815
     49 H15        -1.2414   -0.4409   -4.7242 H         1 <0>         0.4304
     50 H16         0.2253    0.3208   -2.5955 H         1 <0>         0.1145
     51 H17        -1.3472   -0.2969   -2.0352 H         1 <0>         0.1108
     52 H18        -2.6988    2.6738   -1.0431 H         1 <0>         0.1189
     53 H19        -2.8188    0.9022   -0.8049 H         1 <0>         0.1090
     54 H20         0.0021   -0.0041    0.0020 H         1 <0>         0.0872
     55 H21         1.0049    1.4764    0.0004 H         1 <0>         0.0934
     56 H22         1.6913    0.8055    1.8954 H         1 <0>         0.1361
     57 H23         2.6331    0.9016    4.1672 H         1 <0>         0.1406
     58 H24        -1.0330    2.5321    5.6246 H         1 <0>         0.1407
     59 H25        -1.9773    2.4478    3.3534 H         1 <0>         0.1649
@<TRIPOS>BOND
     1    1    2 1
     2    1   37 1
     3    1   38 1
     4    1   39 1
     5    2    6 2
     6    2    3 1
     7    3    4 2
     8    3   40 1
     9    4    5 1
    10    4   19 1
    11    5    6 1
    12    5    7 1
    13    7   14 2
    14    7    8 1
    15    8    9 1
    16    8   10 am
    17   10   11 2
    18   10   12 1
    19   12   18 1
    20   12   13 2
    21   13   14 1
    22   13   15 1
    23   15   16 1
    24   15   41 1
    25   15   42 1
    26   16   17 1
    27   16   43 1
    28   16   44 1
    29   17   18 1
    30   17   45 1
    31   17   46 1
    32   18   47 1
    33   18   48 1
    34   19   20 am
    35   19   49 1
    36   20   21 2
    37   20   22 1
    38   22   23 1
    39   22   50 1
    40   22   51 1
    41   23   24 1
    42   23   29 1
    43   23   25 1
    44   25   26 1
    45   25   52 1
    46   25   53 1
    47   26   27 2
    48   26   28 am
    49   28   29 1
    50   28   30 1
    51   29   54 1
    52   29   55 1
    53   30   35 ar
    54   30   31 ar
    55   31   32 ar
    56   31   56 1
    57   32   33 ar
    58   32   57 1
    59   33   34 ar
    60   33   36 1
    61   34   35 ar
    62   34   58 1
    63   35   59 1
@<TRIPOS>MOLECULE
ZINC13551450
   58    61     0     0     0
SMALL
USER_CHARGES
(4E,5R)-5-(2,3-dimethoxyphenyl)-4-[hydroxy-(2,4,5-trimethyl-1H-pyrrol-3-yl)methylene]-1-(5-methylisoxazol-3-yl)pyrrolidine-2,3-dione
@<TRIPOS>ATOM
      1 C1         -1.7087    1.4483   -0.4269 C.3       1 <0>        -0.0752
      2 C2         -0.4258    0.6625   -0.3389 C.2       1 <0>        -0.0166
      3 C3          0.8256    1.1665   -0.2444 C.2       1 <0>        -0.2334
      4 C4          1.6561    0.0150   -0.1982 C.2       1 <0>         0.2599
      5 N1          0.8547   -1.0158   -0.2666 N.2       1 <0>        -0.3601
      6 O1         -0.3020   -0.6726   -0.3450 O.3       1 <0>         0.1045
      7 N2          3.0462   -0.0108   -0.1001 N.am      1 <0>        -0.5046
      8 C5          3.8821   -1.2139   -0.1524 C.3       1 <0>         0.2438
      9 H1          3.7497   -1.7192   -1.1090 H         1 <0>         0.1112
     10 C6          5.3136   -0.7516   -0.0079 C.2       1 <0>        -0.3400
     11 C7          6.4473   -1.5459   -0.0040 C.2       1 <0>         0.3590
     12 C8          7.7778   -0.9259    0.0077 C.2       1 <0>        -0.2418
     13 C9          8.7391   -0.9156    1.1172 C.2       1 <0>        -0.1186
     14 C10         9.8153   -0.2396    0.6803 C.2       1 <0>         0.0188
     15 N3          9.5945    0.1744   -0.6015 N.pl3     1 <0>        -0.5389
     16 H2         10.2236    0.6856   -1.1342 H         1 <0>         0.4175
     17 C11         8.3799   -0.2270   -1.0217 C.2       1 <0>         0.1140
     18 C12         7.7811    0.0391   -2.3788 C.3       1 <0>        -0.0998
     19 C13        11.0649    0.0243    1.4803 C.3       1 <0>        -0.0874
     20 C14         8.5564   -1.5416    2.4758 C.3       1 <0>        -0.0856
     21 O2          6.3293   -2.8910   -0.0109 O.3       1 <0>        -0.4315
     22 C15         5.2623    0.6411    0.1259 C.2       1 <0>         0.4003
     23 O3          6.2202    1.3806    0.2685 O.2       1 <0>        -0.3985
     24 C16         3.8379    1.0625    0.0637 C.2       1 <0>         0.4866
     25 O4          3.4470    2.2088    0.1490 O.2       1 <0>        -0.4698
     26 C17         3.5204   -2.1433    0.9774 C.ar      1 <0>        -0.0694
     27 C18         3.6015   -1.7048    2.2864 C.ar      1 <0>        -0.1215
     28 C19         3.2705   -2.5546    3.3249 C.ar      1 <0>        -0.0863
     29 C20         2.8564   -3.8470    3.0596 C.ar      1 <0>        -0.1897
     30 C21         2.7725   -4.2925    1.7506 C.ar      1 <0>         0.1058
     31 C22         3.1013   -3.4351    0.7045 C.ar      1 <0>         0.1074
     32 O5          3.0160   -3.8662   -0.5825 O.3       1 <0>        -0.3194
     33 C23         4.1298   -4.5996   -1.0961 C.3       1 <0>         0.0308
     34 O6          2.3650   -5.5631    1.4879 O.3       1 <0>        -0.3062
     35 C24         2.0388   -6.3849    2.6105 C.3       1 <0>         0.0253
     36 H3         -2.5516    0.7609   -0.4982 H         1 <0>         0.0851
     37 H4         -1.8181    2.0662    0.4643 H         1 <0>         0.0921
     38 H5         -1.6843    2.0861   -1.3105 H         1 <0>         0.0925
     39 H6          1.1244    2.2038   -0.2123 H         1 <0>         0.1811
     40 H7          7.2258    0.9767   -2.3534 H         1 <0>         0.0837
     41 H8          8.5773    0.1084   -3.1200 H         1 <0>         0.0742
     42 H9          7.1072   -0.7753   -2.6446 H         1 <0>         0.0834
     43 H10        10.9557    0.9613    2.0263 H         1 <0>         0.0742
     44 H11        11.2235   -0.7911    2.1860 H         1 <0>         0.0825
     45 H12        11.9194    0.0935    0.8071 H         1 <0>         0.0657
     46 H13         8.9235   -2.5677    2.4553 H         1 <0>         0.0662
     47 H14         9.1154   -0.9705    3.2171 H         1 <0>         0.0678
     48 H15         7.4984   -1.5394    2.7376 H         1 <0>         0.0636
     49 H16         7.2394   -3.3055   -0.0068 H         1 <0>         0.4140
     50 H17         3.9245   -0.6961    2.4977 H         1 <0>         0.1182
     51 H18         3.3358   -2.2086    4.3459 H         1 <0>         0.1285
     52 H19         2.5987   -4.5092    3.8729 H         1 <0>         0.1327
     53 H20         3.8865   -4.9831   -2.0870 H         1 <0>         0.0880
     54 H21         4.9972   -3.9431   -1.1635 H         1 <0>         0.0583
     55 H22         4.3551   -5.4321   -0.4296 H         1 <0>         0.0455
     56 H23         2.9129   -6.4848    3.2540 H         1 <0>         0.0547
     57 H24         1.2248   -5.9264    3.1721 H         1 <0>         0.0561
     58 H25         1.7298   -7.3703    2.2619 H         1 <0>         0.1015
@<TRIPOS>BOND
     1    1    2 1
     2    1   36 1
     3    1   37 1
     4    1   38 1
     5    2    6 1
     6    2    3 2
     7    3    4 1
     8    3   39 1
     9    4    5 2
    10    4    7 1
    11    5    6 1
    12    7   24 am
    13    7    8 1
    14    8    9 1
    15    8   10 1
    16    8   26 1
    17   10   11 2
    18   10   22 1
    19   11   12 1
    20   11   21 1
    21   12   17 2
    22   12   13 1
    23   13   14 2
    24   13   20 1
    25   14   15 1
    26   14   19 1
    27   15   16 1
    28   15   17 1
    29   17   18 1
    30   18   40 1
    31   18   41 1
    32   18   42 1
    33   19   43 1
    34   19   44 1
    35   19   45 1
    36   20   46 1
    37   20   47 1
    38   20   48 1
    39   21   49 1
    40   22   23 2
    41   22   24 1
    42   24   25 2
    43   26   31 ar
    44   26   27 ar
    45   27   28 ar
    46   27   50 1
    47   28   29 ar
    48   28   51 1
    49   29   30 ar
    50   29   52 1
    51   30   31 ar
    52   30   34 1
    53   31   32 1
    54   32   33 1
    55   33   53 1
    56   33   54 1
    57   33   55 1
    58   34   35 1
    59   35   56 1
    60   35   57 1
    61   35   58 1
@<TRIPOS>MOLECULE
ZINC25025248
   51    54     0     0     0
SMALL
USER_CHARGES
2-[(1R)-1-(4-amino-6-dimethylamino-1,3,5-triazin-2-yl)ethyl]sulfanyl-7-chloro-3-(2-furylmethyl)quinazolin-4-one
@<TRIPOS>ATOM
      1 C1         -0.0127    1.0858    0.0080 C.3       1 <0>        -0.1470
      2 C2         -0.7288    1.5792    1.2668 C.3       1 <0>        -0.0240
      3 H1         -0.5589    2.6659    1.2836 H         1 <0>         0.1414
      4 C3          0.0000    1.0800    2.4877 C.ar      1 <0>         0.4396
      5 N1         -0.1099   -0.1865    2.8489 N.ar      1 <0>        -0.6330
      6 C4          0.5327   -0.6313    3.9263 C.ar      1 <0>         0.6360
      7 N2          1.2854    0.1999    4.6390 N.ar      1 <0>        -0.6538
      8 C5          1.3933    1.4723    4.2728 C.ar      1 <0>         0.6297
      9 N3          0.7516    1.9085    3.1911 N.ar      1 <0>        -0.6266
     10 N4          2.1738    2.3395    5.0098 N.pl3     1 <0>        -0.5799
     11 C6          2.8841    1.8571    6.1968 C.3       1 <0>         0.1031
     12 C7          2.2922    3.7425    4.6050 C.3       1 <0>         0.1016
     13 N5          0.4170   -1.9538    4.3029 N.pl3     1 <0>        -0.8289
     14 S1         -2.4269    0.9527    1.2797 S.3       1 <0>         0.0938
     15 C8         -3.0720    1.7882   -0.1312 C.2       1 <0>         0.3670
     16 N6         -2.2778    2.5856   -0.8024 N.2       1 <0>        -0.5259
     17 C9         -2.7088    3.2574   -1.8956 C.ar      1 <0>         0.1844
     18 C10        -1.8632    4.1086   -2.6123 C.ar      1 <0>        -0.1070
     19 C11        -2.3463    4.7721   -3.7188 C.ar      1 <0>         0.0147
     20 C12        -3.6641    4.6043   -4.1303 C.ar      1 <0>        -0.1356
     21 C13        -4.5098    3.7776   -3.4452 C.ar      1 <0>        -0.0206
     22 C14        -4.0469    3.0938   -2.3216 C.ar      1 <0>        -0.2012
     23 C15        -4.9146    2.1939   -1.5504 C.2       1 <0>         0.5600
     24 O1         -6.0758    2.0121   -1.8675 O.2       1 <0>        -0.4966
     25 N7         -4.3748    1.5704   -0.4777 N.am      1 <0>        -0.5270
     26 C16        -5.1964    0.6582    0.3218 C.3       1 <0>         0.1729
     27 C17        -5.8790    1.4300    1.4215 C.2       1 <0>        -0.0577
     28 C18        -7.0823    2.0250    1.3350 C.2       1 <0>        -0.1655
     29 C19        -7.3327    2.6269    2.5896 C.2       1 <0>        -0.2197
     30 C20        -6.2639    2.3707    3.3650 C.2       1 <0>        -0.0220
     31 O2         -5.3865    1.6455    2.6523 O.3       1 <0>        -0.1621
     32 Cl1        -1.2975    5.8298   -4.6104 Cl        1 <0>        -0.0515
     33 H2         -0.5447    1.4502   -0.8831 H         1 <0>         0.0955
     34 H3          0.0022   -0.0141    0.0019 H         1 <0>         0.0687
     35 H4          1.0193    1.4665    0.0002 H         1 <0>         0.0689
     36 H5          3.4489    2.6861    6.6483 H         1 <0>         0.0797
     37 H6          3.5788    1.0548    5.9075 H         1 <0>         0.0631
     38 H7          2.1579    1.4682    6.9258 H         1 <0>         0.0631
     39 H8          2.9507    4.2728    5.3086 H         1 <0>         0.0796
     40 H9          1.2969    4.2109    4.6103 H         1 <0>         0.0649
     41 H10         2.7179    3.7972    3.5922 H         1 <0>         0.0651
     42 H11         0.9484   -2.3206    5.1934 H         1 <0>         0.4398
     43 H12        -0.2066   -2.6412    3.7126 H         1 <0>         0.4421
     44 H13        -0.8380    4.2450   -2.3012 H         1 <0>         0.1515
     45 H14        -4.0232    5.1333   -5.0007 H         1 <0>         0.1447
     46 H15        -5.5315    3.6540   -3.7728 H         1 <0>         0.1480
     47 H16        -5.9548    0.1884   -0.3217 H         1 <0>         0.1398
     48 H17        -4.5566   -0.1204    0.7629 H         1 <0>         0.1169
     49 H18        -7.7332    2.0383    0.4734 H         1 <0>         0.1530
     50 H19        -8.2116    3.1884    2.8701 H         1 <0>         0.1514
     51 H20        -6.1335    2.6933    4.3875 H         1 <0>         0.2056
@<TRIPOS>BOND
     1    1    2 1
     2    1   33 1
     3    1   34 1
     4    1   35 1
     5    2    3 1
     6    2    4 1
     7    2   14 1
     8    4    9 ar
     9    4    5 ar
    10    5    6 ar
    11    6    7 ar
    12    6   13 1
    13    7    8 ar
    14    8    9 ar
    15    8   10 1
    16   10   11 1
    17   10   12 1
    18   11   36 1
    19   11   37 1
    20   11   38 1
    21   12   39 1
    22   12   40 1
    23   12   41 1
    24   13   42 1
    25   13   43 1
    26   14   15 1
    27   15   25 1
    28   15   16 2
    29   16   17 1
    30   17   22 ar
    31   17   18 ar
    32   18   19 ar
    33   18   44 1
    34   19   20 ar
    35   19   32 1
    36   20   21 ar
    37   20   45 1
    38   21   22 ar
    39   21   46 1
    40   22   23 1
    41   23   24 2
    42   23   25 am
    43   25   26 1
    44   26   27 1
    45   26   47 1
    46   26   48 1
    47   27   31 1
    48   27   28 2
    49   28   29 1
    50   28   49 1
    51   29   30 2
    52   29   50 1
    53   30   31 1
    54   30   51 1
@<TRIPOS>MOLECULE
ZINC09091508
   56    58     0     0     0
SMALL
USER_CHARGES

@<TRIPOS>ATOM
      1 C1         -0.0516    1.4890   -0.0183 C.3       1 <0>        -0.1321
      2 C2         -0.0080   -0.0403   -0.0075 C.3       1 <0>        -0.1196
      3 H1         -1.0248   -0.4327    0.0046 H         1 <0>         0.1475
      4 C3          0.7276   -0.5132    1.2198 C.2       1 <0>         0.4650
      5 O1          1.9133   -0.7688    1.1564 O.2       1 <0>        -0.4988
      6 C4          0.0388   -0.6591    2.4429 C.2       1 <0>        -0.4505
      7 C5          0.6700   -1.2153    3.5690 C.2       1 <0>         0.5618
      8 N1         -0.0378   -1.3354    4.7309 N.am      1 <0>        -0.5438
      9 C6         -1.3160   -0.9347    4.8137 C.2       1 <0>         0.7118
     10 O2         -1.9025   -1.0632    5.8706 O.2       1 <0>        -0.5229
     11 N2         -1.9708   -0.3966    3.7720 N.am      1 <0>        -0.5579
     12 C7         -1.3585   -0.2290    2.5817 C.2       1 <0>         0.5766
     13 O3         -1.9532    0.2639    1.6410 O.2       1 <0>        -0.4901
     14 C8         -3.3663    0.0196    3.9321 C.3       1 <0>         0.0781
     15 C9          0.6110   -1.9138    5.9102 C.3       1 <0>         0.0623
     16 N3          1.9649   -1.6276    3.5026 N.pl3     1 <0>        -0.7903
     17 S1          0.8505   -0.6312   -1.4922 S.3       1 <0>         0.0397
     18 C10        -0.1970   -0.1311   -2.8178 C.2       1 <0>         0.3721
     19 N4         -1.2981    0.5189   -2.5324 N.2       1 <0>        -0.5248
     20 C11        -2.1479    0.9324   -3.5020 C.ar      1 <0>         0.1768
     21 C12        -3.3226    1.6264   -3.1983 C.ar      1 <0>        -0.0991
     22 C13        -4.1543    2.0273   -4.2049 C.ar      1 <0>        -0.0605
     23 C14        -3.8511    1.7556   -5.5341 C.ar      1 <0>        -0.0619
     24 C15        -2.7004    1.0728   -5.8651 C.ar      1 <0>        -0.0266
     25 C16        -1.8374    0.6550   -4.8527 C.ar      1 <0>        -0.1952
     26 C17        -0.5964   -0.0754   -5.1438 C.2       1 <0>         0.5572
     27 O4         -0.2754   -0.3434   -6.2871 O.2       1 <0>        -0.5001
     28 N5          0.1796   -0.4344   -4.0950 N.am      1 <0>        -0.5235
     29 C18         1.4304   -1.1597   -4.3310 C.3       1 <0>         0.0904
     30 C19         1.1562   -2.6649   -4.3250 C.3       1 <0>        -0.1107
     31 C20         2.4358   -3.4179   -4.6944 C.3       1 <0>        -0.1437
     32 C21         0.6966   -3.0939   -2.9302 C.3       1 <0>        -0.1547
     33 Cl1        -4.9313    2.2802   -6.7878 Cl        1 <0>        -0.0589
     34 H2          0.9652    1.8814   -0.0304 H         1 <0>         0.0575
     35 H3         -0.5837    1.8311   -0.9060 H         1 <0>         0.0862
     36 H4         -0.5675    1.8441    0.8738 H         1 <0>         0.0768
     37 H5         -3.6918   -0.1851    4.9521 H         1 <0>         0.1012
     38 H6         -3.4525    1.0873    3.7305 H         1 <0>         0.0831
     39 H7         -3.9930   -0.5339    3.2328 H         1 <0>         0.0831
     40 H8          1.0844   -1.1213    6.4898 H         1 <0>         0.0892
     41 H9         -0.1349   -2.4176    6.5249 H         1 <0>         0.1117
     42 H10         1.3664   -2.6329    5.5932 H         1 <0>         0.0883
     43 H11         2.4834   -1.4697    2.6982 H         1 <0>         0.4416
     44 H12         2.3695   -2.0793    4.2596 H         1 <0>         0.4078
     45 H13        -3.5721    1.8447   -2.1704 H         1 <0>         0.1505
     46 H14        -5.0608    2.5629   -3.9646 H         1 <0>         0.1447
     47 H15        -2.4693    0.8633   -6.8991 H         1 <0>         0.1478
     48 H16         1.8420   -0.8692   -5.2977 H         1 <0>         0.1066
     49 H17         2.1449   -0.9173   -3.5444 H         1 <0>         0.1016
     50 H18         0.3766   -2.8951   -5.0512 H         1 <0>         0.0778
     51 H19         3.2154   -3.1877   -3.9682 H         1 <0>         0.0611
     52 H20         2.2404   -4.4902   -4.6901 H         1 <0>         0.0638
     53 H21         2.7632   -3.1122   -5.6881 H         1 <0>         0.0597
     54 H22         1.4761   -2.8637   -2.2039 H         1 <0>         0.0719
     55 H23        -0.2150   -2.5575   -2.6670 H         1 <0>         0.0528
     56 H24         0.5012   -4.1663   -2.9258 H         1 <0>         0.0615
@<TRIPOS>BOND
     1    1    2 1
     2    1   34 1
     3    1   35 1
     4    1   36 1
     5    2    3 1
     6    2    4 1
     7    2   17 1
     8    4    5 2
     9    4    6 1
    10    6   12 1
    11    6    7 2
    12    7    8 1
    13    7   16 1
    14    8    9 am
    15    8   15 1
    16    9   10 2
    17    9   11 am
    18   11   12 am
    19   11   14 1
    20   12   13 2
    21   14   37 1
    22   14   38 1
    23   14   39 1
    24   15   40 1
    25   15   41 1
    26   15   42 1
    27   16   43 1
    28   16   44 1
    29   17   18 1
    30   18   28 1
    31   18   19 2
    32   19   20 1
    33   20   25 ar
    34   20   21 ar
    35   21   22 ar
    36   21   45 1
    37   22   23 ar
    38   22   46 1
    39   23   24 ar
    40   23   33 1
    41   24   25 ar
    42   24   47 1
    43   25   26 1
    44   26   27 2
    45   26   28 am
    46   28   29 1
    47   29   30 1
    48   29   48 1
    49   29   49 1
    50   30   31 1
    51   30   32 1
    52   30   50 1
    53   31   51 1
    54   31   52 1
    55   31   53 1
    56   32   54 1
    57   32   55 1
    58   32   56 1
@<TRIPOS>MOLECULE
ZINC60346213
   60    64     0     0     0
SMALL
USER_CHARGES

@<TRIPOS>ATOM
      1 C1          2.1719    2.0035   -7.9764 C.3       1 <0>        -0.0784
      2 C2          2.9100    1.9063   -6.6662 C.2       1 <0>         0.0057
      3 C3          2.7791    2.7483   -5.6253 C.2       1 <0>        -0.2148
      4 C4          3.6512    2.2865   -4.6128 C.2       1 <0>        -0.1684
      5 C5          4.2629    1.1901   -5.0955 C.2       1 <0>        -0.0373
      6 O1          3.8058    0.9612   -6.3375 O.3       1 <0>        -0.1578
      7 C6          5.2838    0.3566   -4.3647 C.3       1 <0>         0.2156
      8 C7          5.1432   -1.1061   -4.7367 C.2       1 <0>         0.5402
      9 O2          5.2734   -1.5975   -5.8373 O.2       1 <0>        -0.4426
     10 N1          4.8442   -1.7467   -3.5893 N.am      1 <0>        -0.5597
     11 C8          4.7771   -0.9009   -2.5549 C.2       1 <0>         0.7138
     12 O3          4.5225   -1.2440   -1.4171 O.2       1 <0>        -0.5265
     13 N2          5.0233    0.3717   -2.9149 N.am      1 <0>        -0.7093
     14 C9          4.6197   -3.1908   -3.4875 C.3       1 <0>         0.0975
     15 C10         5.9272   -3.8837   -3.2022 C.2       1 <0>         0.5019
     16 O4          6.9463   -3.2350   -3.0944 O.2       1 <0>        -0.5073
     17 N3          5.9641   -5.2241   -3.0667 N.am      1 <0>        -0.7191
     18 C11         7.2485   -5.9082   -2.8978 C.3       1 <0>         0.2218
     19 C12         7.0464   -7.4361   -2.9660 C.3       1 <0>        -0.1199
     20 C13         7.3566   -7.7949   -4.4404 C.3       1 <0>        -0.1242
     21 C14         8.5399   -6.8547   -4.7793 C.3       1 <0>        -0.1272
     22 C15         8.1981   -5.5386   -4.0508 C.3       1 <0>        -0.1205
     23 C16         7.8666   -5.5266   -1.5775 C.ar      1 <0>        -0.0731
     24 C17         9.2239   -5.6956   -1.3764 C.ar      1 <0>        -0.1065
     25 C18         9.7941   -5.3480   -0.1666 C.ar      1 <0>        -0.1106
     26 C19         9.0058   -4.8283    0.8494 C.ar      1 <0>         0.0470
     27 C20         7.6418   -4.6561    0.6465 C.ar      1 <0>         0.0551
     28 C21         7.0766   -5.0030   -0.5717 C.ar      1 <0>        -0.0946
     29 O5          6.8514   -4.1405    1.6272 O.3       1 <0>        -0.3050
     30 C22         7.3862   -4.1477    2.9553 C.3       1 <0>         0.0207
     31 C23         8.8294   -3.6293    2.8951 C.3       1 <0>         0.0203
     32 O6          9.5810   -4.4944    2.0369 O.3       1 <0>        -0.3080
     33 C24         6.6984    0.8577   -4.6626 C.3       1 <0>        -0.1451
     34 H1          2.4764    1.1833   -8.6266 H         1 <0>         0.0789
     35 H2          1.0989    1.9436   -7.7943 H         1 <0>         0.0890
     36 H3          2.4066    2.9537   -8.4561 H         1 <0>         0.0899
     37 H4          2.1324    3.6116   -5.5732 H         1 <0>         0.1539
     38 H5          3.7984    2.7294   -3.6388 H         1 <0>         0.1509
     39 H6          5.0285    1.1479   -2.3331 H         1 <0>         0.4433
     40 H7          3.9172   -3.3932   -2.6790 H         1 <0>         0.1289
     41 H8          4.2093   -3.5618   -4.4267 H         1 <0>         0.1276
     42 H9          5.1402   -5.7358   -3.0809 H         1 <0>         0.4030
     43 H10         7.7407   -7.9430   -2.2958 H         1 <0>         0.0870
     44 H11         6.0172   -7.6961   -2.7184 H         1 <0>         0.0765
     45 H12         7.6554   -8.8394   -4.5292 H         1 <0>         0.0729
     46 H13         6.4989   -7.5818   -5.0785 H         1 <0>         0.0698
     47 H14         9.4754   -7.2677   -4.4021 H         1 <0>         0.0692
     48 H15         8.6007   -6.6906   -5.8552 H         1 <0>         0.0693
     49 H16         7.7033   -4.8502   -4.7360 H         1 <0>         0.0732
     50 H17         9.1064   -5.0840   -3.6553 H         1 <0>         0.0798
     51 H18         9.8396   -6.1002   -2.1661 H         1 <0>         0.1333
     52 H19        10.8546   -5.4816   -0.0118 H         1 <0>         0.1350
     53 H20         6.0172   -4.8679   -0.7329 H         1 <0>         0.1273
     54 H21         6.7889   -3.4986    3.5956 H         1 <0>         0.1221
     55 H22         7.3767   -5.1637    3.3498 H         1 <0>         0.0772
     56 H23         8.8394   -2.6154    2.4950 H         1 <0>         0.0772
     57 H24         9.2640   -3.6349    3.8947 H         1 <0>         0.1226
     58 H25         6.7920    1.8947   -4.3401 H         1 <0>         0.0863
     59 H26         7.4218    0.2437   -4.1262 H         1 <0>         0.0832
     60 H27         6.8892    0.7916   -5.7337 H         1 <0>         0.0887
@<TRIPOS>BOND
     1    1    2 1
     2    1   34 1
     3    1   35 1
     4    1   36 1
     5    2    6 1
     6    2    3 2
     7    3    4 1
     8    3   37 1
     9    4    5 2
    10    4   38 1
    11    5    6 1
    12    5    7 1
    13    7   13 1
    14    7    8 1
    15    7   33 1
    16    8    9 2
    17    8   10 am
    18   10   11 am
    19   10   14 1
    20   11   12 2
    21   11   13 am
    22   13   39 1
    23   14   15 1
    24   14   40 1
    25   14   41 1
    26   15   16 2
    27   15   17 am
    28   17   18 1
    29   17   42 1
    30   18   22 1
    31   18   19 1
    32   18   23 1
    33   19   20 1
    34   19   43 1
    35   19   44 1
    36   20   21 1
    37   20   45 1
    38   20   46 1
    39   21   22 1
    40   21   47 1
    41   21   48 1
    42   22   49 1
    43   22   50 1
    44   23   28 ar
    45   23   24 ar
    46   24   25 ar
    47   24   51 1
    48   25   26 ar
    49   25   52 1
    50   26   32 1
    51   26   27 ar
    52   27   28 ar
    53   27   29 1
    54   28   53 1
    55   29   30 1
    56   30   31 1
    57   30   54 1
    58   30   55 1
    59   31   32 1
    60   31   56 1
    61   31   57 1
    62   33   58 1
    63   33   59 1
    64   33   60 1
@<TRIPOS>MOLECULE
ZINC05397975
   62    66     0     0     0
SMALL
USER_CHARGES
2-cyano-N-[6-[4-(4-dimethylaminophenyl)pyrimidin-2-yl]amino-4,8-dioxabicyclo[3.3.0]oct-2-yl]-benzenesulfonamide
@<TRIPOS>ATOM
      1 C1          8.5705    4.8185   -0.5878 C.3       1 <0>         0.0894
      2 N1          7.3746    5.6351   -0.8092 N.pl3     1 <0>        -0.6325
      3 C2          7.5046    7.0744   -1.0496 C.3       1 <0>         0.0846
      4 C3          6.1131    5.0427   -0.7912 C.ar      1 <0>         0.2373
      5 C4          5.9963    3.6611   -0.6823 C.ar      1 <0>        -0.2087
      6 C5          4.7503    3.0734   -0.6634 C.ar      1 <0>        -0.0162
      7 C6          3.6053    3.8652   -0.7541 C.ar      1 <0>        -0.1298
      8 C7          3.7250    5.2503   -0.8695 C.ar      1 <0>        -0.0338
      9 C8          4.9729    5.8342   -0.8818 C.ar      1 <0>        -0.2085
     10 C9          2.2643    3.2356   -0.7339 C.ar      1 <0>         0.2795
     11 C10         1.1101    4.0199   -0.8247 C.ar      1 <0>        -0.2863
     12 C11        -0.1193    3.3878   -0.8022 C.ar      1 <0>         0.1955
     13 N2         -0.1677    2.0683   -0.7013 N.ar      1 <0>        -0.5763
     14 C12         0.9420    1.3497   -0.6118 C.ar      1 <0>         0.5736
     15 N3          2.1393    1.9140   -0.6295 N.ar      1 <0>        -0.5706
     16 N4          0.8470   -0.0268   -0.5027 N.pl3     1 <0>        -0.6939
     17 C13        -0.4687   -0.6708   -0.4813 C.3       1 <0>         0.1395
     18 H1         -1.1870   -0.0519    0.0564 H         1 <0>         0.1252
     19 C14        -0.9582   -0.9437   -1.9130 C.3       1 <0>         0.0481
     20 O1         -0.7703   -2.3310   -2.1910 O.3       1 <0>        -0.3622
     21 C15        -0.1973   -3.0078   -1.0692 C.3       1 <0>         0.0482
     22 H2          0.8424   -3.2855   -1.2423 H         1 <0>         0.1074
     23 C16        -0.3743   -2.0708    0.1562 C.3       1 <0>         0.0384
     24 H3          0.4423   -2.1522    0.8735 H         1 <0>         0.1084
     25 O2         -1.6546   -2.4329    0.7104 O.3       1 <0>        -0.3448
     26 C17        -1.6991   -3.8755    0.6461 C.3       1 <0>         0.0333
     27 C18        -1.0814   -4.2291   -0.7245 C.3       1 <0>         0.1130
     28 H4         -1.8629   -4.3576   -1.4734 H         1 <0>         0.1206
     29 N5         -0.2642   -5.4406   -0.6213 N.pl3     1 <0>        -1.1054
     30 S1         -0.8758   -6.8967   -1.1195 S.o2      1 <0>         2.6845
     31 O3          0.1543   -7.8567   -0.9282 O.2       1 <0>        -0.9403
     32 O4         -2.1577   -7.0252   -0.5201 O.2       1 <0>        -0.9405
     33 C19        -1.1416   -6.7829   -2.8576 C.ar      1 <0>        -0.6432
     34 C20        -2.4205   -6.8668   -3.3685 C.ar      1 <0>        -0.0188
     35 C21        -2.6314   -6.7733   -4.7325 C.ar      1 <0>        -0.1086
     36 C22        -1.5620   -6.6048   -5.5945 C.ar      1 <0>        -0.0605
     37 C23        -0.2778   -6.5245   -5.0978 C.ar      1 <0>        -0.0871
     38 C24        -0.0581   -6.6133   -3.7215 C.ar      1 <0>         0.0775
     39 C25         1.2725   -6.5303   -3.1987 C.1       1 <0>         0.2150
     40 N6          2.3281   -6.4645   -2.7840 N.1       1 <0>        -0.3590
     41 H5          8.9348    4.4411   -1.5433 H         1 <0>         0.0516
     42 H6          9.3440    5.4266   -0.1186 H         1 <0>         0.0693
     43 H7          8.3226    3.9802    0.0633 H         1 <0>         0.0708
     44 H8          6.5135    7.5250   -1.1018 H         1 <0>         0.0803
     45 H9          8.0681    7.5294   -0.2350 H         1 <0>         0.0592
     46 H10         8.0289    7.2397   -1.9908 H         1 <0>         0.0558
     47 H11         6.8829    3.0485   -0.6120 H         1 <0>         0.1266
     48 H12         4.6600    2.0006   -0.5780 H         1 <0>         0.1338
     49 H13         2.8401    5.8649   -0.9444 H         1 <0>         0.1291
     50 H14         5.0660    6.9068   -0.9663 H         1 <0>         0.1302
     51 H15         1.1775    5.0944   -0.9108 H         1 <0>         0.1447
     52 H16        -1.0304    3.9636   -0.8707 H         1 <0>         0.1689
     53 H17         1.6515   -0.5651   -0.4404 H         1 <0>         0.4136
     54 H18        -2.0155   -0.6919   -1.9947 H         1 <0>         0.0874
     55 H19        -0.3822   -0.3456   -2.6191 H         1 <0>         0.0780
     56 H20        -2.7298   -4.2260    0.6994 H         1 <0>         0.1167
     57 H21        -1.1076   -4.3096    1.4521 H         1 <0>         0.0782
     58 H22         0.6350   -5.3899   -0.2612 H         1 <0>         0.4226
     59 H23        -3.2592   -7.0021   -2.7016 H         1 <0>         0.1560
     60 H24        -3.6349   -6.8359   -5.1268 H         1 <0>         0.1450
     61 H25        -1.7333   -6.5363   -6.6586 H         1 <0>         0.1455
     62 H26         0.5560   -6.3937   -5.7717 H         1 <0>         0.1444
@<TRIPOS>BOND
     1    1    2 1
     2    1   41 1
     3    1   42 1
     4    1   43 1
     5    2    3 1
     6    2    4 1
     7    3   44 1
     8    3   45 1
     9    3   46 1
    10    4    9 ar
    11    4    5 ar
    12    5    6 ar
    13    5   47 1
    14    6    7 ar
    15    6   48 1
    16    7    8 ar
    17    7   10 1
    18    8    9 ar
    19    8   49 1
    20    9   50 1
    21   10   15 ar
    22   10   11 ar
    23   11   12 ar
    24   11   51 1
    25   12   13 ar
    26   12   52 1
    27   13   14 ar
    28   14   15 ar
    29   14   16 1
    30   16   17 1
    31   16   53 1
    32   17   18 1
    33   17   23 1
    34   17   19 1
    35   19   20 1
    36   19   54 1
    37   19   55 1
    38   20   21 1
    39   21   22 1
    40   21   27 1
    41   21   23 1
    42   23   24 1
    43   23   25 1
    44   25   26 1
    45   26   27 1
    46   26   56 1
    47   26   57 1
    48   27   28 1
    49   27   29 1
    50   29   30 1
    51   29   58 1
    52   30   31 2
    53   30   32 2
    54   30   33 1
    55   33   38 ar
    56   33   34 ar
    57   34   35 ar
    58   34   59 1
    59   35   36 ar
    60   35   60 1
    61   36   37 ar
    62   36   61 1
    63   37   38 ar
    64   37   62 1
    65   38   39 1
    66   39   40 3
@<TRIPOS>MOLECULE
ZINC11157515
   61    64     0     0     0
SMALL
USER_CHARGES
3-(2,6-dimethylmorpholin-4-yl)sulfonyl-N'-(3-ethyl-4-oxo-quinazolin-2-yl)-benzohydrazide
@<TRIPOS>ATOM
      1 C1         -0.7527    1.5927   -1.2315 C.3       1 <0>        -0.1728
      2 C2         -0.0127    1.0858    0.0080 C.3       1 <0>         0.0797
      3 N1         -0.6984    1.5583    1.2133 N.am      1 <0>        -0.5510
      4 C3         -0.3433    2.7407    1.7674 C.2       1 <0>         0.5682
      5 O1          0.5393    3.4249    1.2830 O.2       1 <0>        -0.4997
      6 C4         -1.0659    3.1706    2.9721 C.ar      1 <0>        -0.2272
      7 C5         -0.7776    4.3738    3.6147 C.ar      1 <0>        -0.0277
      8 C6         -1.4775    4.7228    4.7366 C.ar      1 <0>        -0.1561
      9 C7         -2.4696    3.8920    5.2415 C.ar      1 <0>        -0.0595
     10 C8         -2.7721    2.7072    4.6318 C.ar      1 <0>        -0.1297
     11 C9         -2.0748    2.3227    3.4830 C.ar      1 <0>         0.2051
     12 N2         -2.3411    1.1576    2.8469 N.2       1 <0>        -0.5940
     13 C10        -1.6860    0.7998    1.7711 C.2       1 <0>         0.6417
     14 N3         -2.0075   -0.3946    1.1770 N.pl3     1 <0>        -0.4996
     15 N4         -3.0164   -1.1992    1.7225 N.am      1 <0>        -0.4975
     16 C11        -3.3321   -2.3723    1.1389 C.2       1 <0>         0.5639
     17 O2         -2.7416   -2.7322    0.1393 O.2       1 <0>        -0.5263
     18 C12        -4.3968   -3.2214    1.7146 C.ar      1 <0>        -0.1455
     19 C13        -5.0730   -2.8136    2.8657 C.ar      1 <0>        -0.0291
     20 C14        -6.0693   -3.6078    3.3944 C.ar      1 <0>        -0.1378
     21 C15        -6.3910   -4.8117    2.7927 C.ar      1 <0>         0.0105
     22 C16        -5.7209   -5.2243    1.6550 C.ar      1 <0>        -0.6865
     23 C17        -4.7262   -4.4366    1.1127 C.ar      1 <0>         0.0462
     24 S1         -6.1388   -6.7587    0.8965 S.o2      1 <0>         2.6887
     25 O3         -7.4747   -7.0519    1.2821 O.2       1 <0>        -0.9456
     26 O4         -5.7430   -6.6600   -0.4647 O.2       1 <0>        -0.9434
     27 N5         -5.1815   -7.9218    1.5845 N.pl3     1 <0>        -0.9972
     28 C18        -3.8692   -8.2596    1.0108 C.3       1 <0>         0.0899
     29 C19        -2.8274   -8.2176    2.1403 C.3       1 <0>         0.0760
     30 H1         -1.8745   -8.5950    1.7691 H         1 <0>         0.1175
     31 O5         -3.2763   -9.0364    3.2228 O.3       1 <0>        -0.3650
     32 C20        -4.4960   -8.5950    3.8239 C.3       1 <0>         0.0696
     33 H2         -4.3781   -7.5704    4.1766 H         1 <0>         0.0673
     34 C21        -5.6208   -8.6523    2.7839 C.3       1 <0>         0.0904
     35 C22        -4.8440   -9.5047    5.0038 C.3       1 <0>        -0.1472
     36 C23        -2.6534   -6.7775    2.6267 C.3       1 <0>        -0.1912
     37 H3         -0.2425    1.2411   -2.1283 H         1 <0>         0.0852
     38 H4         -1.7753    1.2154   -1.2238 H         1 <0>         0.0606
     39 H5         -0.7675    2.6825   -1.2255 H         1 <0>         0.0701
     40 H6          0.0021   -0.0041    0.0020 H         1 <0>         0.0882
     41 H7          1.0099    1.4631    0.0003 H         1 <0>         0.1123
     42 H8         -0.0076    5.0256    3.2291 H         1 <0>         0.1356
     43 H9         -1.2561    5.6546    5.2358 H         1 <0>         0.1315
     44 H10        -3.0095    4.1867    6.1292 H         1 <0>         0.1327
     45 H11        -3.5457    2.0709    5.0356 H         1 <0>         0.1367
     46 H12        -1.5362   -0.6818    0.3793 H         1 <0>         0.4444
     47 H13        -3.4876   -0.9119    2.5202 H         1 <0>         0.4379
     48 H14        -4.8195   -1.8765    3.3390 H         1 <0>         0.1392
     49 H15        -6.5960   -3.2916    4.2826 H         1 <0>         0.1468
     50 H16        -7.1690   -5.4317    3.2130 H         1 <0>         0.1485
     51 H17        -4.2035   -4.7600    0.2247 H         1 <0>         0.1555
     52 H18        -3.9044   -9.2589    0.5770 H         1 <0>         0.0891
     53 H19        -3.6072   -7.5337    0.2410 H         1 <0>         0.1011
     54 H20        -6.5192   -8.1866    3.1889 H         1 <0>         0.0991
     55 H21        -5.8300   -9.6904    2.5255 H         1 <0>         0.0881
     56 H22        -4.9599  -10.5294    4.6507 H         1 <0>         0.0683
     57 H23        -4.0438   -9.4635    5.7428 H         1 <0>         0.0687
     58 H24        -5.7762   -9.1694    5.4585 H         1 <0>         0.0753
     59 H25        -1.9176   -6.7519    3.4305 H         1 <0>         0.0694
     60 H26        -2.3112   -6.1539    1.8008 H         1 <0>         0.0698
     61 H27        -3.6075   -6.4008    2.9954 H         1 <0>         0.0608
@<TRIPOS>BOND
     1    1    2 1
     2    1   37 1
     3    1   38 1
     4    1   39 1
     5    2    3 1
     6    2   40 1
     7    2   41 1
     8    3   13 1
     9    3    4 am
    10    4    5 2
    11    4    6 1
    12    6   11 ar
    13    6    7 ar
    14    7    8 ar
    15    7   42 1
    16    8    9 ar
    17    8   43 1
    18    9   10 ar
    19    9   44 1
    20   10   11 ar
    21   10   45 1
    22   11   12 1
    23   12   13 2
    24   13   14 1
    25   14   15 1
    26   14   46 1
    27   15   16 am
    28   15   47 1
    29   16   17 2
    30   16   18 1
    31   18   23 ar
    32   18   19 ar
    33   19   20 ar
    34   19   48 1
    35   20   21 ar
    36   20   49 1
    37   21   22 ar
    38   21   50 1
    39   22   23 ar
    40   22   24 1
    41   23   51 1
    42   24   25 2
    43   24   26 2
    44   24   27 1
    45   27   34 1
    46   27   28 1
    47   28   29 1
    48   28   52 1
    49   28   53 1
    50   29   30 1
    51   29   31 1
    52   29   36 1
    53   31   32 1
    54   32   33 1
    55   32   34 1
    56   32   35 1
    57   34   54 1
    58   34   55 1
    59   35   56 1
    60   35   57 1
    61   35   58 1
    62   36   59 1
    63   36   60 1
    64   36   61 1
@<TRIPOS>MOLECULE
ZINC12542298
   64    68     0     0     0
SMALL
USER_CHARGES
(3R)-N-[3-[(2-methoxyphenyl)sulfamoyl]-4-morpholino-phenyl]-2,3-dihydro-1,4-benzodioxine-3-carboxamide
@<TRIPOS>ATOM
      1 C1          1.2881    6.2008    3.3540 C.3       1 <0>         0.0268
      2 O1          1.6997    5.4062    2.2399 O.3       1 <0>        -0.3149
      3 C2          1.9001    6.0533    1.0604 C.ar      1 <0>         0.1065
      4 C3          1.7046    7.4220    0.9776 C.ar      1 <0>        -0.1787
      5 C4          1.9135    8.0793   -0.2210 C.ar      1 <0>        -0.0981
      6 C5          2.3074    7.3723   -1.3419 C.ar      1 <0>        -0.1160
      7 C6          2.5047    6.0063   -1.2676 C.ar      1 <0>        -0.1432
      8 C7          2.3022    5.3409   -0.0673 C.ar      1 <0>         0.1459
      9 N1          2.5009    3.9576    0.0105 N.pl3     1 <0>        -1.0368
     10 S1          3.6543    3.2326   -0.9310 S.o2      1 <0>         2.7048
     11 O2          4.8261    4.0291   -0.8231 O.2       1 <0>        -0.9499
     12 O3          3.6392    1.8508   -0.5997 O.2       1 <0>        -0.9284
     13 C8          3.1142    3.3554   -2.6036 C.ar      1 <0>        -0.6405
     14 C9          3.8392    4.1032   -3.5102 C.ar      1 <0>        -0.0445
     15 C10         3.4165    4.1957   -4.8294 C.ar      1 <0>         0.1300
     16 C11         2.2583    3.5455   -5.2348 C.ar      1 <0>        -0.0502
     17 C12         1.5304    2.8021   -4.3276 C.ar      1 <0>        -0.1417
     18 C13         1.9562    2.7048   -3.0090 C.ar      1 <0>         0.1820
     19 N2          1.2184    1.9519   -2.0893 N.pl3     1 <0>        -0.5152
     20 C14         1.1055    0.5521   -2.5244 C.3       1 <0>         0.0253
     21 C15         0.3443   -0.2467   -1.4632 C.3       1 <0>         0.0622
     22 O4         -0.9336    0.3571   -1.2449 O.3       1 <0>        -0.3817
     23 C16        -0.8610    1.7206   -0.8195 C.3       1 <0>         0.0640
     24 C17        -0.1119    2.5394   -1.8742 C.3       1 <0>         0.0162
     25 N3          4.1557    4.9500   -5.7507 N.am      1 <0>        -0.6684
     26 C18         3.5230    5.6250   -6.7307 C.2       1 <0>         0.5268
     27 O5          2.3108    5.6542   -6.7620 O.2       1 <0>        -0.4827
     28 C19         4.3216    6.3434   -7.7877 C.3       1 <0>         0.0366
     29 H1          5.0271    7.0263   -7.3144 H         1 <0>         0.1176
     30 C20         5.0832    5.3226   -8.6440 C.3       1 <0>         0.0341
     31 O6          5.8187    6.0364   -9.6437 O.3       1 <0>        -0.2967
     32 C21         5.1490    7.0128  -10.3149 C.ar      1 <0>         0.0438
     33 C22         5.6617    7.4903  -11.5120 C.ar      1 <0>        -0.1097
     34 C23         4.9947    8.4836  -12.2037 C.ar      1 <0>        -0.1123
     35 C24         3.8154    9.0044  -11.7043 C.ar      1 <0>        -0.1112
     36 C25         3.2989    8.5327  -10.5125 C.ar      1 <0>        -0.1081
     37 C26         3.9624    7.5348   -9.8141 C.ar      1 <0>         0.0496
     38 O7          3.4394    7.0775   -8.6437 O.3       1 <0>        -0.2788
     39 H2          2.0452    6.9574    3.5601 H         1 <0>         0.0576
     40 H3          0.3409    6.6881    3.1226 H         1 <0>         0.0568
     41 H4          1.1642    5.5629    4.2292 H         1 <0>         0.1026
     42 H5          1.3930    7.9766    1.8503 H         1 <0>         0.1350
     43 H6          1.7645    9.1472   -0.2827 H         1 <0>         0.1298
     44 H7          2.4657    7.8894   -2.2768 H         1 <0>         0.1293
     45 H8          2.8167    5.4571   -2.1437 H         1 <0>         0.1329
     46 H9          1.9629    3.4237    0.6158 H         1 <0>         0.4312
     47 H10         4.7374    4.6128   -3.1939 H         1 <0>         0.1558
     48 H11         1.9272    3.6212   -6.2600 H         1 <0>         0.1445
     49 H12         0.6296    2.2965   -4.6429 H         1 <0>         0.1376
     50 H13         0.5658    0.5074   -3.4704 H         1 <0>         0.0532
     51 H14         2.1020    0.1294   -2.6529 H         1 <0>         0.0974
     52 H15         0.9107   -0.2469   -0.5319 H         1 <0>         0.0701
     53 H16         0.2083   -1.2722   -1.8067 H         1 <0>         0.1040
     54 H17        -0.3296    1.7777    0.1305 H         1 <0>         0.0641
     55 H18        -1.8684    2.1187   -0.6976 H         1 <0>         0.1035
     56 H19        -0.0042    3.5673   -1.5280 H         1 <0>         0.0932
     57 H20        -0.6712    2.5265   -2.8097 H         1 <0>         0.0563
     58 H21         5.1227    4.9862   -5.6830 H         1 <0>         0.4181
     59 H22         5.7707    4.7561   -8.0160 H         1 <0>         0.1290
     60 H23         4.3768    4.6439   -9.1220 H         1 <0>         0.0866
     61 H24         6.5828    7.0853  -11.9041 H         1 <0>         0.1375
     62 H25         5.3952    8.8533  -13.1360 H         1 <0>         0.1356
     63 H26         3.2969    9.7812  -12.2466 H         1 <0>         0.1359
     64 H27         2.3771    8.9409  -10.1249 H         1 <0>         0.1377
@<TRIPOS>BOND
     1    1    2 1
     2    1   39 1
     3    1   40 1
     4    1   41 1
     5    2    3 1
     6    3    8 ar
     7    3    4 ar
     8    4    5 ar
     9    4   42 1
    10    5    6 ar
    11    5   43 1
    12    6    7 ar
    13    6   44 1
    14    7    8 ar
    15    7   45 1
    16    8    9 1
    17    9   10 1
    18    9   46 1
    19   10   11 2
    20   10   12 2
    21   10   13 1
    22   13   18 ar
    23   13   14 ar
    24   14   15 ar
    25   14   47 1
    26   15   16 ar
    27   15   25 1
    28   16   17 ar
    29   16   48 1
    30   17   18 ar
    31   17   49 1
    32   18   19 1
    33   19   24 1
    34   19   20 1
    35   20   21 1
    36   20   50 1
    37   20   51 1
    38   21   22 1
    39   21   52 1
    40   21   53 1
    41   22   23 1
    42   23   24 1
    43   23   54 1
    44   23   55 1
    45   24   56 1
    46   24   57 1
    47   25   26 am
    48   25   58 1
    49   26   27 2
    50   26   28 1
    51   28   29 1
    52   28   38 1
    53   28   30 1
    54   30   31 1
    55   30   59 1
    56   30   60 1
    57   31   32 1
    58   32   37 ar
    59   32   33 ar
    60   33   34 ar
    61   33   61 1
    62   34   35 ar
    63   34   62 1
    64   35   36 ar
    65   35   63 1
    66   36   37 ar
    67   36   64 1
    68   37   38 1
@<TRIPOS>MOLECULE
ZINC16594199
   62    65     0     0     0
SMALL
USER_CHARGES
N,N-dimethyl-3-[[(13-oxo6,7,8,9,10,11-hexahydroazocino[2,1-b]quinazoline-3-carbonyl)amino]carbamoyl]benzenesulfonamide
@<TRIPOS>ATOM
      1 C1        -10.0264    1.1187   -2.2266 C.3       1 <0>         0.0904
      2 N1         -9.2186    2.1197   -1.5254 N.pl3     1 <0>        -1.0032
      3 C2         -8.7961    3.3379   -2.2209 C.3       1 <0>         0.0815
      4 S1         -8.7832    1.8743    0.0534 S.o2      1 <0>         2.6914
      5 O1         -9.7397    0.9793    0.6040 O.2       1 <0>        -0.9471
      6 O2         -8.5321    3.1576    0.6096 O.2       1 <0>        -0.9459
      7 C3         -7.2422    1.0200    0.0420 C.ar      1 <0>        -0.6855
      8 C4         -7.2199   -0.3636    0.0344 C.ar      1 <0>         0.0091
      9 C5         -6.0143   -1.0420    0.0245 C.ar      1 <0>        -0.1394
     10 C6         -4.8253   -0.3419    0.0173 C.ar      1 <0>        -0.0311
     11 C7         -4.8407    1.0535    0.0307 C.ar      1 <0>        -0.1482
     12 C8         -6.0607    1.7319    0.0402 C.ar      1 <0>         0.0444
     13 C9         -3.5705    1.8100    0.0288 C.2       1 <0>         0.5643
     14 O3         -3.5870    3.0254    0.0355 O.2       1 <0>        -0.5247
     15 N2         -2.3943    1.1521    0.0197 N.am      1 <0>        -0.5165
     16 N3         -1.1906    1.8690    0.0179 N.am      1 <0>        -0.5144
     17 C10        -0.0144    1.2110    0.0087 C.2       1 <0>         0.5637
     18 O4          0.0021   -0.0041    0.0020 O.2       1 <0>        -0.5242
     19 C11         1.2580    1.9690    0.0006 C.ar      1 <0>        -0.0803
     20 C12         1.2332    3.3685    0.0088 C.ar      1 <0>        -0.1163
     21 C13         2.3966    4.0834   -0.0068 C.ar      1 <0>        -0.0359
     22 C14         3.6182    3.4155   -0.0253 C.ar      1 <0>        -0.1816
     23 C15         3.6588    2.0035   -0.0196 C.ar      1 <0>         0.1755
     24 C16         2.4654    1.2821   -0.0146 C.ar      1 <0>        -0.0436
     25 N4          4.8722    1.4092   -0.0343 N.2       1 <0>        -0.5515
     26 C17         6.0029    2.0401   -0.0323 C.2       1 <0>         0.4383
     27 N5          6.0566    3.3861    0.0476 N.am      1 <0>        -0.5315
     28 C18         4.9047    4.1195   -0.0463 C.2       1 <0>         0.5362
     29 O5          4.9676    5.3334   -0.1290 O.2       1 <0>        -0.4998
     30 C19         7.2462    4.1838    0.2576 C.3       1 <0>         0.0918
     31 C20         8.5967    3.4683    0.1882 C.3       1 <0>        -0.1285
     32 C21         8.9789    2.9831    1.5767 C.3       1 <0>        -0.1057
     33 C22         8.4754    1.6678    2.0752 C.3       1 <0>        -0.1262
     34 C23         7.6047    0.7007    1.2876 C.3       1 <0>        -0.0958
     35 C24         7.2602    1.1922   -0.1189 C.3       1 <0>        -0.0867
     36 H1        -11.0839    1.3448   -2.0903 H         1 <0>         0.0647
     37 H2         -9.7850    1.1366   -3.2894 H         1 <0>         0.0766
     38 H3         -9.8112    0.1298   -1.8217 H         1 <0>         0.0722
     39 H4         -8.2081    3.9575   -1.5438 H         1 <0>         0.0874
     40 H5         -8.1905    3.0704   -3.0868 H         1 <0>         0.0643
     41 H6         -9.6752    3.8921   -2.5496 H         1 <0>         0.0710
     42 H7         -8.1478   -0.9162    0.0358 H         1 <0>         0.1492
     43 H8         -6.0038   -2.1219    0.0183 H         1 <0>         0.1464
     44 H9         -3.8848   -0.8727    0.0051 H         1 <0>         0.1378
     45 H10        -6.0795    2.8117    0.0465 H         1 <0>         0.1568
     46 H11        -2.3811    0.1822    0.0143 H         1 <0>         0.4330
     47 H12        -1.2038    2.8389    0.0232 H         1 <0>         0.4351
     48 H13         0.2861    3.8883    0.0312 H         1 <0>         0.1377
     49 H14         2.3700    5.1630   -0.0057 H         1 <0>         0.1469
     50 H15         2.4796    0.2021   -0.0268 H         1 <0>         0.1579
     51 H16         7.1556    4.6955    1.2370 H         1 <0>         0.0833
     52 H17         7.2446    5.0061   -0.4881 H         1 <0>         0.0881
     53 H18         9.3526    4.2842   -0.0538 H         1 <0>         0.0724
     54 H19         8.7648    2.8209   -0.6284 H         1 <0>         0.0989
     55 H20         8.6642    3.7690    2.3022 H         1 <0>         0.0597
     56 H21        10.0856    2.9981    1.6499 H         1 <0>         0.0653
     57 H22         7.9352    1.8497    3.0295 H         1 <0>         0.0506
     58 H23         9.3599    1.0771    2.4014 H         1 <0>         0.0570
     59 H24         6.6729    0.5384    1.8354 H         1 <0>         0.0721
     60 H25         8.1292   -0.2556    1.2079 H         1 <0>         0.0801
     61 H26         6.9279    0.2601   -0.6670 H         1 <0>         0.0939
     62 H27         8.0541    1.5400   -0.6997 H         1 <0>         0.1187
@<TRIPOS>BOND
     1    1    2 1
     2    1   36 1
     3    1   37 1
     4    1   38 1
     5    2    3 1
     6    2    4 1
     7    3   39 1
     8    3   40 1
     9    3   41 1
    10    4    5 2
    11    4    6 2
    12    4    7 1
    13    7   12 ar
    14    7    8 ar
    15    8    9 ar
    16    8   42 1
    17    9   10 ar
    18    9   43 1
    19   10   11 ar
    20   10   44 1
    21   11   12 ar
    22   11   13 1
    23   12   45 1
    24   13   14 2
    25   13   15 am
    26   15   16 1
    27   15   46 1
    28   16   17 am
    29   16   47 1
    30   17   18 2
    31   17   19 1
    32   19   24 ar
    33   19   20 ar
    34   20   21 ar
    35   20   48 1
    36   21   22 ar
    37   21   49 1
    38   22   28 1
    39   22   23 ar
    40   23   24 ar
    41   23   25 1
    42   24   50 1
    43   25   26 2
    44   26   35 1
    45   26   27 1
    46   27   28 am
    47   27   30 1
    48   28   29 2
    49   30   31 1
    50   30   51 1
    51   30   52 1
    52   31   32 1
    53   31   53 1
    54   31   54 1
    55   32   33 1
    56   32   55 1
    57   32   56 1
    58   33   34 1
    59   33   57 1
    60   33   58 1
    61   34   35 1
    62   34   59 1
    63   34   60 1
    64   35   61 1
    65   35   62 1
@<TRIPOS>MOLECULE
ZINC33291919
   57    60     0     0     0
SMALL
USER_CHARGES
3-[2-[2-(2,4-difluoroanilino)-2-oxo-ethyl]-1,5-dioxo-[1,2,4]triazolo[4,3-a]quinazolin-4-yl]-N-isopropyl-propanamide
@<TRIPOS>ATOM
      1 C1          5.8310   -2.3308   -2.4910 C.3       1 <0>        -0.1654
      2 C2          6.0813   -0.8265   -2.6157 C.3       1 <0>         0.1379
      3 C3          6.8183   -0.5391   -3.9254 C.3       1 <0>        -0.1609
      4 N1          4.8001   -0.1162   -2.6103 N.am      1 <0>        -0.7384
      5 C4          4.2149    0.2092   -1.4406 C.2       1 <0>         0.5247
      6 O1          4.7490   -0.0861   -0.3926 O.2       1 <0>        -0.5400
      7 C5          2.8969    0.9399   -1.4351 C.3       1 <0>        -0.1593
      8 C6          2.4560    1.1855    0.0093 C.3       1 <0>         0.1231
      9 N2          1.1748    1.8958    0.0147 N.am      1 <0>        -0.5134
     10 C7          0.0259    1.1908    0.0180 C.2       1 <0>         0.5761
     11 O2          0.0476   -0.0251    0.0164 O.2       1 <0>        -0.4801
     12 C8         -1.2577    1.9166    0.0172 C.ar      1 <0>        -0.1722
     13 C9         -2.4732    1.2345    0.0152 C.ar      1 <0>        -0.0224
     14 C10        -3.6542    1.9470    0.0146 C.ar      1 <0>        -0.1352
     15 C11        -3.6365    3.3327    0.0164 C.ar      1 <0>        -0.0524
     16 C12        -2.4384    4.0196    0.0282 C.ar      1 <0>        -0.1381
     17 C13        -1.2417    3.3193    0.0241 C.ar      1 <0>         0.1932
     18 N3         -0.0192    3.9894    0.0206 N.am      1 <0>        -0.5029
     19 C14         1.1638    3.2840    0.0160 C.2       1 <0>         0.5061
     20 N4          2.1517    4.1374    0.0134 N.2       1 <0>        -0.2722
     21 N5          1.6129    5.4299    0.0164 N.am      1 <0>        -0.4238
     22 C15         0.2705    5.3076    0.0208 C.2       1 <0>         0.6759
     23 O3         -0.5353    6.2214    0.0243 O.2       1 <0>        -0.5204
     24 C16         2.3693    6.6846    0.0157 C.3       1 <0>         0.1477
     25 C17         2.6331    7.1129    1.4363 C.2       1 <0>         0.5007
     26 O4          2.2291    6.4366    2.3586 O.2       1 <0>        -0.5031
     27 N6          3.3180    8.2474    1.6819 N.am      1 <0>        -0.6793
     28 C18         3.4830    8.6949    2.9997 C.ar      1 <0>         0.1110
     29 C19         3.6301    7.7785    4.0317 C.ar      1 <0>        -0.0676
     30 C20         3.7926    8.2213    5.3301 C.ar      1 <0>        -0.1418
     31 C21         3.8090    9.5787    5.6037 C.ar      1 <0>         0.1170
     32 C22         3.6621   10.4960    4.5770 C.ar      1 <0>        -0.1726
     33 C23         3.5053   10.0576    3.2747 C.ar      1 <0>         0.1054
     34 F1          3.3683   10.9523    2.2717 F         1 <0>        -0.1271
     35 F2          3.9681   10.0087    6.8745 F         1 <0>        -0.1291
     36 H1          5.3012   -2.5375   -1.5494 H         1 <0>         0.0608
     37 H2          6.7930   -2.8641   -2.4951 H         1 <0>         0.0663
     38 H3          5.2189   -2.6722   -3.3388 H         1 <0>         0.0574
     39 H4          6.6602   -0.4574   -1.7562 H         1 <0>         0.0878
     40 H5          6.9983    0.5424   -4.0151 H         1 <0>         0.0618
     41 H6          6.2061   -0.8805   -4.7731 H         1 <0>         0.0622
     42 H7          7.7803   -1.0725   -3.9294 H         1 <0>         0.0735
     43 H8          4.3157    0.1516   -3.5609 H         1 <0>         0.4195
     44 H9          3.0099    1.9038   -1.9529 H         1 <0>         0.1011
     45 H10         2.1389    0.3328   -1.9517 H         1 <0>         0.1025
     46 H11         2.3431    0.2216    0.5271 H         1 <0>         0.1169
     47 H12         3.2140    1.7926    0.5259 H         1 <0>         0.1105
     48 H13        -2.4902    0.1546    0.0145 H         1 <0>         0.1518
     49 H14        -4.5980    1.4220    0.0130 H         1 <0>         0.1434
     50 H15        -4.5675    3.8800    0.0166 H         1 <0>         0.1436
     51 H16        -2.4336    5.0996    0.0291 H         1 <0>         0.1554
     52 H17         3.3262    6.5356   -0.5061 H         1 <0>         0.1405
     53 H18         1.7878    7.4630   -0.5000 H         1 <0>         0.1398
     54 H19         3.7475    8.8221    0.8480 H         1 <0>         0.4438
     55 H20         3.6179    6.7196    3.8196 H         1 <0>         0.1585
     56 H21         3.9074    7.5079    6.1328 H         1 <0>         0.1477
     57 H22         3.6751   11.5541    4.7925 H         1 <0>         0.1541
@<TRIPOS>BOND
     1    1    2 1
     2    1   36 1
     3    1   37 1
     4    1   38 1
     5    2    3 1
     6    2    4 1
     7    2   39 1
     8    3   40 1
     9    3   41 1
    10    3   42 1
    11    4    5 am
    12    4   43 1
    13    5    6 2
    14    5    7 1
    15    7    8 1
    16    7   44 1
    17    7   45 1
    18    8    9 1
    19    8   46 1
    20    8   47 1
    21    9   19 1
    22    9   10 am
    23   10   11 2
    24   10   12 1
    25   12   17 ar
    26   12   13 ar
    27   13   14 ar
    28   13   48 1
    29   14   15 ar
    30   14   49 1
    31   15   16 ar
    32   15   50 1
    33   16   17 ar
    34   16   51 1
    35   17   18 1
    36   18   22 am
    37   18   19 1
    38   19   20 2
    39   20   21 1
    40   21   22 am
    41   21   24 1
    42   22   23 2
    43   24   25 1
    44   24   52 1
    45   24   53 1
    46   25   26 2
    47   25   27 am
    48   27   28 1
    49   27   54 1
    50   28   33 ar
    51   28   29 ar
    52   29   30 ar
    53   29   55 1
    54   30   31 ar
    55   30   56 1
    56   31   32 ar
    57   31   35 1
    58   32   33 ar
    59   32   57 1
    60   33   34 1
@<TRIPOS>MOLECULE
ZINC02659302
   56    59     0     0     0
SMALL
USER_CHARGES
6-amino-1-isobutyl-3-methyl-5-[2-[(7-phenyl-3,5,7,8-tetrazabicyclo[4.3.0]nona-2,4,8,10-tetraen-2-yl)sulfanyl]acetyl]-pyrimidine-2,4-dione
@<TRIPOS>ATOM
      1 C1        -11.3958    5.2787   -1.5618 C.3       1 <0>        -0.1469
      2 C2         -9.8867    5.5161   -1.4762 C.3       1 <0>        -0.1157
      3 C3         -9.5526    6.8898   -2.0611 C.3       1 <0>        -0.1440
      4 C4         -9.4444    5.4638   -0.0125 C.3       1 <0>         0.0963
      5 N1         -7.9853    5.5717    0.0609 N.am      1 <0>        -0.5394
      6 C5         -7.2272    4.4365    0.0182 C.2       1 <0>         0.5638
      7 C6         -5.8282    4.5499    0.0946 C.2       1 <0>        -0.4531
      8 C7         -5.2538    5.8970    0.2051 C.2       1 <0>         0.5775
      9 O1         -4.0487    6.0552    0.2692 O.2       1 <0>        -0.4972
     10 N2         -6.0897    6.9554    0.2336 N.am      1 <0>        -0.5588
     11 C8         -7.4199    6.7847    0.1626 C.2       1 <0>         0.7113
     12 O2         -8.1381    7.7648    0.1911 O.2       1 <0>        -0.5158
     13 C9         -5.5393    8.3087    0.3429 C.3       1 <0>         0.0796
     14 C10        -5.0019    3.4064    0.0604 C.2       1 <0>         0.4566
     15 O3         -5.4982    2.2979    0.0726 O.2       1 <0>        -0.4990
     16 C11        -3.5037    3.5607    0.0088 C.3       1 <0>        -0.1294
     17 S1         -2.7296    1.9249   -0.0259 S.3       1 <0>         0.0276
     18 C12        -1.0314    2.3913   -0.0831 C.ar      1 <0>         0.2363
     19 C13        -0.0156    1.4154   -0.1231 C.ar      1 <0>        -0.2644
     20 C14         0.0051    0.0040   -0.1295 C.2       1 <0>         0.1143
     21 N3          1.2461   -0.3916   -0.1689 N.2       1 <0>        -0.2340
     22 N4          2.0958    0.7218   -0.1903 N.pl3     1 <0>        -0.3296
     23 C15         1.3239    1.8483   -0.1622 C.ar      1 <0>         0.3581
     24 N5          1.5767    3.1560   -0.1642 N.ar      1 <0>        -0.5378
     25 C16         0.5945    4.0300   -0.1304 C.ar      1 <0>         0.3641
     26 N6         -0.6768    3.6724   -0.0935 N.ar      1 <0>        -0.5465
     27 C17         3.4953    0.6861   -0.2334 C.ar      1 <0>         0.1515
     28 C18         4.1943    1.6524   -0.9448 C.ar      1 <0>        -0.1112
     29 C19         5.5745    1.6169   -0.9818 C.ar      1 <0>        -0.0996
     30 C20         6.2599    0.6148   -0.3198 C.ar      1 <0>        -0.1184
     31 C21         5.5664   -0.3517    0.3854 C.ar      1 <0>        -0.1031
     32 C22         4.1865   -0.3190    0.4303 C.ar      1 <0>        -0.1107
     33 N7         -7.8169    3.2152   -0.0914 N.pl3     1 <0>        -0.7906
     34 H1        -11.9177    6.0509   -0.9967 H         1 <0>         0.0642
     35 H2        -11.7109    5.3160   -2.6046 H         1 <0>         0.0673
     36 H3        -11.6338    4.3000   -1.1451 H         1 <0>         0.0595
     37 H4         -9.3648    4.7439   -2.0413 H         1 <0>         0.0746
     38 H5         -9.8677    6.9271   -3.1039 H         1 <0>         0.0588
     39 H6        -10.0745    7.6621   -1.4960 H         1 <0>         0.0687
     40 H7         -8.4775    7.0590   -2.0001 H         1 <0>         0.0486
     41 H8         -9.7615    4.5191    0.4294 H         1 <0>         0.0959
     42 H9         -9.8979    6.2908    0.5339 H         1 <0>         0.1194
     43 H10        -4.4515    8.2559    0.3885 H         1 <0>         0.1061
     44 H11        -5.8385    8.8939   -0.5267 H         1 <0>         0.0793
     45 H12        -5.9183    8.7831    1.2481 H         1 <0>         0.0795
     46 H13        -3.1920    4.0600    0.8172 H         1 <0>         0.1225
     47 H14        -3.2261    4.1131   -0.8889 H         1 <0>         0.1326
     48 H15        -0.8617   -0.6398   -0.1058 H         1 <0>         0.2079
     49 H16         0.8370    5.0824   -0.1332 H         1 <0>         0.2094
     50 H17         3.6594    2.4328   -1.4656 H         1 <0>         0.1342
     51 H18         6.1189    2.3703   -1.5317 H         1 <0>         0.1337
     52 H19         7.3390    0.5870   -0.3534 H         1 <0>         0.1304
     53 H20         6.1046   -1.1331    0.9013 H         1 <0>         0.1334
     54 H21         3.6455   -1.0741    0.9812 H         1 <0>         0.1331
     55 H22        -7.2790    2.4100   -0.0338 H         1 <0>         0.4415
     56 H23        -8.7751    3.1497   -0.2272 H         1 <0>         0.4074
@<TRIPOS>BOND
     1    1    2 1
     2    1   34 1
     3    1   35 1
     4    1   36 1
     5    2    3 1
     6    2    4 1
     7    2   37 1
     8    3   38 1
     9    3   39 1
    10    3   40 1
    11    4    5 1
    12    4   41 1
    13    4   42 1
    14    5   11 am
    15    5    6 1
    16    6    7 2
    17    6   33 1
    18    7    8 1
    19    7   14 1
    20    8    9 2
    21    8   10 am
    22   10   11 am
    23   10   13 1
    24   11   12 2
    25   13   43 1
    26   13   44 1
    27   13   45 1
    28   14   15 2
    29   14   16 1
    30   16   17 1
    31   16   46 1
    32   16   47 1
    33   17   18 1
    34   18   26 ar
    35   18   19 ar
    36   19   23 ar
    37   19   20 1
    38   20   21 2
    39   20   48 1
    40   21   22 1
    41   22   23 1
    42   22   27 1
    43   23   24 ar
    44   24   25 ar
    45   25   26 ar
    46   25   49 1
    47   27   32 ar
    48   27   28 ar
    49   28   29 ar
    50   28   50 1
    51   29   30 ar
    52   29   51 1
    53   30   31 ar
    54   30   52 1
    55   31   32 ar
    56   31   53 1
    57   32   54 1
    58   33   55 1
    59   33   56 1
@<TRIPOS>MOLECULE
ZINC15280685
   53    55     0     0     0
SMALL
USER_CHARGES
N'-[2-(7-tert-butyl-1,3-dimethyl-2,4-dioxo-pyrimido[5,6-e]pyrimidin-5-yl)sulfanylacetyl]thiophene-2-carbohydrazide
@<TRIPOS>ATOM
      1 C1         -3.5827    5.9499    6.2409 C.3       1 <0>        -0.1319
      2 C2         -3.5162    4.4241    6.1504 C.3       1 <0>        -0.0031
      3 C3         -4.9351    3.8519    6.1323 C.3       1 <0>        -0.1374
      4 C4         -2.7598    3.8738    7.3611 C.3       1 <0>        -0.1374
      5 C5         -2.7982    4.0266    4.8864 C.ar      1 <0>         0.4172
      6 N1         -2.6386    2.7418    4.6276 N.ar      1 <0>        -0.5472
      7 C6         -2.0132    2.3496    3.5266 C.ar      1 <0>         0.4668
      8 C7         -1.5222    3.3271    2.6401 C.ar      1 <0>        -0.3027
      9 C8         -1.7139    4.6808    2.9553 C.ar      1 <0>         0.2164
     10 N2         -2.3562    4.9761    4.0872 N.ar      1 <0>        -0.5439
     11 S1         -1.1245    5.9530    1.8882 S.3       1 <0>         0.1687
     12 C9         -1.6615    7.4131    2.8133 C.3       1 <0>        -0.1824
     13 C10        -1.2537    8.6579    2.0683 C.2       1 <0>         0.5351
     14 O1         -0.6585    8.5669    1.0155 O.2       1 <0>        -0.5184
     15 N3         -1.5503    9.8723    2.5719 N.am      1 <0>        -0.5116
     16 N4         -1.1711   11.0296    1.8793 N.am      1 <0>        -0.5176
     17 C11        -1.4677   12.2440    2.3829 C.2       1 <0>         0.6121
     18 O2         -2.0649   12.3353    3.4394 O.2       1 <0>        -0.5220
     19 C12        -1.0710   13.4548    1.6582 C.2       1 <0>        -0.2475
     20 C13        -1.2810   14.7829    1.9949 C.2       1 <0>        -0.0549
     21 C14        -0.7962   15.7315    1.1294 C.2       1 <0>        -0.1809
     22 C15        -0.1549   15.3328   -0.0004 C.2       1 <0>        -0.1706
     23 S2         -0.1988   13.6032    0.1090 S.3       1 <0>         0.1517
     24 C16        -0.8266    2.8873    1.4269 C.2       1 <0>         0.5696
     25 O3         -0.3811    3.6945    0.6334 O.2       1 <0>        -0.4634
     26 N5         -0.6984    1.5583    1.2133 N.am      1 <0>        -0.5571
     27 C17        -1.1838    0.6643    2.0893 C.2       1 <0>         0.7095
     28 O4         -1.0379   -0.5192    1.8528 O.2       1 <0>        -0.5233
     29 N6         -1.8247    1.0201    3.2166 N.am      1 <0>        -0.5227
     30 C18        -2.3268   -0.0149    4.1237 C.3       1 <0>         0.0847
     31 C19        -0.0127    1.0858    0.0080 C.3       1 <0>         0.0768
     32 H1         -4.1216    6.3419    5.3784 H         1 <0>         0.0633
     33 H2         -4.1020    6.2374    7.1551 H         1 <0>         0.0651
     34 H3         -2.5718    6.3575    6.2538 H         1 <0>         0.0633
     35 H4         -4.8877    2.7649    6.0678 H         1 <0>         0.0691
     36 H5         -5.4544    4.1394    7.0465 H         1 <0>         0.0721
     37 H6         -5.4740    4.2440    5.2698 H         1 <0>         0.0560
     38 H7         -1.7490    4.2814    7.3740 H         1 <0>         0.0560
     39 H8         -3.2791    4.1612    8.2754 H         1 <0>         0.0721
     40 H9         -2.7125    2.7867    7.2966 H         1 <0>         0.0691
     41 H10        -2.7458    7.3946    2.9239 H         1 <0>         0.1349
     42 H11        -1.1957    7.4104    3.7988 H         1 <0>         0.1349
     43 H12        -2.0263    9.9451    3.4140 H         1 <0>         0.4374
     44 H13        -0.6951   10.9568    1.0372 H         1 <0>         0.4335
     45 H14        -1.8011   15.0593    2.9002 H         1 <0>         0.1513
     46 H15        -0.9270   16.7824    1.3414 H         1 <0>         0.1456
     47 H16         0.2771   15.9451   -0.7782 H         1 <0>         0.1948
     48 H17        -2.0883   -0.9989    3.7198 H         1 <0>         0.1056
     49 H18        -1.8581    0.1000    5.1010 H         1 <0>         0.0843
     50 H19        -3.4075    0.0839    4.2252 H         1 <0>         0.0844
     51 H20         0.0021   -0.0041    0.0020 H         1 <0>         0.1059
     52 H21         1.0099    1.4631    0.0003 H         1 <0>         0.0843
     53 H22        -0.5399    1.4469   -0.8751 H         1 <0>         0.0844
@<TRIPOS>BOND
     1    1    2 1
     2    1   32 1
     3    1   33 1
     4    1   34 1
     5    2    3 1
     6    2    4 1
     7    2    5 1
     8    3   35 1
     9    3   36 1
    10    3   37 1
    11    4   38 1
    12    4   39 1
    13    4   40 1
    14    5   10 ar
    15    5    6 ar
    16    6    7 ar
    17    7   29 1
    18    7    8 ar
    19    8    9 ar
    20    8   24 1
    21    9   10 ar
    22    9   11 1
    23   11   12 1
    24   12   13 1
    25   12   41 1
    26   12   42 1
    27   13   14 2
    28   13   15 am
    29   15   16 1
    30   15   43 1
    31   16   17 am
    32   16   44 1
    33   17   18 2
    34   17   19 1
    35   19   23 1
    36   19   20 2
    37   20   21 1
    38   20   45 1
    39   21   22 2
    40   21   46 1
    41   22   23 1
    42   22   47 1
    43   24   25 2
    44   24   26 am
    45   26   27 am
    46   26   31 1
    47   27   28 2
    48   27   29 am
    49   29   30 1
    50   30   48 1
    51   30   49 1
    52   30   50 1
    53   31   51 1
    54   31   52 1
    55   31   53 1
@<TRIPOS>MOLECULE
ZINC29448540
   63    66     0     0     0
SMALL
USER_CHARGES
N-[2-[(3S)-1,1-dioxothiolan-3-yl]-5-methyl-pyrazol-3-yl]-2-[(4R)-4-methyl-2,5-dioxo-4-(4-propylphenyl)imidazolidin-1-yl]acetamide
@<TRIPOS>ATOM
      1 C1          6.6590    0.4038    5.5534 C.3       1 <0>        -0.1560
      2 C2          5.8043    0.6253    4.3039 C.3       1 <0>        -0.1190
      3 C3          4.3872    1.0252    4.7197 C.3       1 <0>        -0.0864
      4 C4          3.5453    1.2434    3.4890 C.ar      1 <0>        -0.0691
      5 C5          2.8381    0.1902    2.9397 C.ar      1 <0>        -0.1152
      6 C6          2.0659    0.3903    1.8108 C.ar      1 <0>        -0.0929
      7 C7          2.0000    1.6438    1.2317 C.ar      1 <0>        -0.1019
      8 C8          2.7110    2.6959    1.7782 C.ar      1 <0>        -0.1050
      9 C9          3.4798    2.4968    2.9096 C.ar      1 <0>        -0.1120
     10 C10         1.1581    1.8620    0.0010 C.3       1 <0>         0.1607
     11 C11         0.5446    3.2481    0.0134 C.2       1 <0>         0.5416
     12 O1          1.1317    4.3087    0.0126 O.2       1 <0>        -0.4566
     13 N1         -0.7893    3.0560    0.0247 N.am      1 <0>        -0.5618
     14 C12        -1.1006    1.7549    0.0161 C.2       1 <0>         0.7216
     15 O2         -2.2404    1.3329    0.0190 O.2       1 <0>        -0.5375
     16 N2         -0.0111    0.9658    0.0074 N.am      1 <0>        -0.7248
     17 C13        -1.7765    4.1384    0.0397 C.3       1 <0>         0.1037
     18 C14        -2.1281    4.5173   -1.3759 C.2       1 <0>         0.5121
     19 O3         -1.6055    3.9400   -2.3058 O.2       1 <0>        -0.4900
     20 N3         -3.0233    5.4976   -1.6085 N.am      1 <0>        -0.6621
     21 C15        -3.3487    5.8482   -2.9187 C.2       1 <0>         0.3149
     22 C16        -2.8377    5.2915   -4.0507 C.2       1 <0>        -0.2716
     23 C17        -3.4303    5.9272   -5.1452 C.2       1 <0>         0.0956
     24 N4         -4.2572    6.8359   -4.6950 N.2       1 <0>        -0.2870
     25 N5         -4.2251    6.8073   -3.2950 N.pl3     1 <0>        -0.3849
     26 C18        -5.0037    7.6640   -2.3972 C.3       1 <0>         0.1623
     27 H1         -4.7262    7.3597   -1.3772 H         1 <0>         0.1118
     28 C19        -4.6530    9.1391   -2.6533 C.3       1 <0>        -0.1396
     29 C20        -5.6840   10.0560   -1.9520 C.3       1 <0>        -0.5815
     30 S1         -7.1988    9.0133   -1.9243 S.o2      1 <0>         2.3921
     31 O4         -7.5559    8.7525   -0.5738 O.2       1 <0>        -0.9265
     32 O5         -8.1617    9.5734   -2.8065 O.2       1 <0>        -0.9235
     33 C21        -6.5222    7.4725   -2.6741 C.3       1 <0>        -0.5989
     34 C22        -3.1590    5.6223   -6.5959 C.3       1 <0>        -0.0781
     35 C23         1.9919    1.6500   -1.2642 C.3       1 <0>        -0.1454
     36 H2          7.6778    0.1163    5.2545 H         1 <0>         0.0567
     37 H3          6.2160   -0.3973    6.1634 H         1 <0>         0.0553
     38 H4          6.6976    1.3331    6.1407 H         1 <0>         0.0554
     39 H5          6.2473    1.4264    3.6939 H         1 <0>         0.0640
     40 H6          5.7656   -0.3040    3.7166 H         1 <0>         0.0638
     41 H7          3.9443    0.2241    5.3297 H         1 <0>         0.0745
     42 H8          4.4259    1.9545    5.3070 H         1 <0>         0.0745
     43 H9          2.8893   -0.7890    3.3924 H         1 <0>         0.1266
     44 H10         1.5137   -0.4325    1.3815 H         1 <0>         0.1221
     45 H11         2.6630    3.6742    1.3231 H         1 <0>         0.1382
     46 H12         4.0320    3.3196    3.3389 H         1 <0>         0.1263
     47 H13         0.1319   -0.1249    0.0046 H         1 <0>         0.4701
     48 H14        -2.6824    3.8012    0.5648 H         1 <0>         0.1381
     49 H15        -1.3552    5.0117    0.5592 H         1 <0>         0.1352
     50 H16        -3.4972    6.0211   -0.7651 H         1 <0>         0.4352
     51 H17        -2.1065    4.4980   -4.0952 H         1 <0>         0.1722
     52 H18        -3.6495    9.3517   -2.2560 H         1 <0>         0.1024
     53 H19        -4.6686    9.3372   -3.7352 H         1 <0>         0.1076
     54 H20        -5.3235   10.3094   -0.9441 H         1 <0>         0.1471
     55 H21        -5.8129   10.9781   -2.5378 H         1 <0>         0.1524
     56 H22        -6.6905    7.3971   -3.7585 H         1 <0>         0.1602
     57 H23        -6.8710    6.5516   -2.1840 H         1 <0>         0.1500
     58 H24        -3.7703    6.2816   -7.2297 H         1 <0>         0.0748
     59 H25        -3.4150    4.5730   -6.8041 H         1 <0>         0.0818
     60 H26        -2.0937    5.7898   -6.8128 H         1 <0>         0.0817
     61 H27         1.3613    1.8134   -2.1506 H         1 <0>         0.0756
     62 H28         2.3836    0.6222   -1.2772 H         1 <0>         0.0838
     63 H29         2.8303    2.3620   -1.2744 H         1 <0>         0.0854
@<TRIPOS>BOND
     1    1    2 1
     2    1   36 1
     3    1   37 1
     4    1   38 1
     5    2    3 1
     6    2   39 1
     7    2   40 1
     8    3    4 1
     9    3   41 1
    10    3   42 1
    11    4    9 ar
    12    4    5 ar
    13    5    6 ar
    14    5   43 1
    15    6    7 ar
    16    6   44 1
    17    7    8 ar
    18    7   10 1
    19    8    9 ar
    20    8   45 1
    21    9   46 1
    22   10   16 1
    23   10   11 1
    24   10   35 1
    25   11   12 2
    26   11   13 am
    27   13   14 am
    28   13   17 1
    29   14   15 2
    30   14   16 am
    31   16   47 1
    32   17   18 1
    33   17   48 1
    34   17   49 1
    35   18   19 2
    36   18   20 am
    37   20   21 1
    38   20   50 1
    39   21   25 1
    40   21   22 2
    41   22   23 1
    42   22   51 1
    43   23   24 2
    44   23   34 1
    45   24   25 1
    46   25   26 1
    47   26   27 1
    48   26   33 1
    49   26   28 1
    50   28   29 1
    51   28   52 1
    52   28   53 1
    53   29   30 1
    54   29   54 1
    55   29   55 1
    56   30   31 2
    57   30   32 2
    58   30   33 1
    59   33   56 1
    60   33   57 1
    61   34   58 1
    62   34   59 1
    63   34   60 1
    64   35   61 1
    65   35   62 1
    66   35   63 1
@<TRIPOS>MOLECULE
ZINC39918659
   60    64     0     0     0
SMALL
USER_CHARGES

@<TRIPOS>ATOM
      1 C1         -0.0185    1.4865    0.0756 C.3       1 <0>        -0.1343
      2 C2          0.0078   -0.0200    0.0475 C.2       1 <0>         0.2082
      3 C3         -0.0053   -0.6641   -1.1392 C.2       1 <0>        -0.2363
      4 C4          0.0193   -2.0737   -1.1719 C.2       1 <0>         0.2347
      5 C5          0.0539   -2.7685    0.0194 C.2       1 <0>        -0.2632
      6 C6          0.0664   -2.0574    1.2261 C.2       1 <0>         0.5314
      7 O1          0.0979   -2.6592    2.2882 O.2       1 <0>        -0.4777
      8 N1          0.0498   -0.7114    1.2165 N.am      1 <0>        -0.4977
      9 C7          0.0717    0.0192    2.4861 C.3       1 <0>         0.1791
     10 C8         -1.3410    0.2469    2.9590 C.2       1 <0>        -0.0584
     11 C9         -2.0469   -0.5773    3.7539 C.2       1 <0>        -0.1568
     12 C10        -3.3136    0.0216    3.9429 C.2       1 <0>        -0.2174
     13 C11        -3.3060    1.1758    3.2523 C.2       1 <0>        -0.0263
     14 O2         -2.1066    1.3099    2.6630 O.3       1 <0>        -0.1756
     15 C12         0.0775   -4.2701    0.0277 C.3       1 <0>         0.1242
     16 C13         1.4220   -4.7819    0.4421 C.ar      1 <0>        -0.1200
     17 C14         2.6692   -4.6343   -0.1255 C.ar      1 <0>        -0.0439
     18 C15         3.7345   -5.2487    0.5241 C.ar      1 <0>        -0.1468
     19 C16         3.5479   -5.9727    1.6840 C.ar      1 <0>        -0.0803
     20 C17         2.2967   -6.1256    2.2605 C.ar      1 <0>        -0.1433
     21 C18         1.2189   -5.5134    1.6184 C.ar      1 <0>         0.1727
     22 N2         -0.1197   -5.5009    1.9675 N.am      1 <0>        -0.5290
     23 C19        -0.8647   -4.7949    1.0922 C.2       1 <0>         0.5559
     24 O3         -2.0628   -4.6142    1.1468 O.2       1 <0>        -0.4781
     25 C20        -0.6641   -6.1754    3.1486 C.3       1 <0>         0.1233
     26 C21        -0.6392   -5.2308    4.3226 C.2       1 <0>         0.4240
     27 O4         -0.2107   -4.1093    4.1867 O.2       1 <0>        -0.4446
     28 O5         -1.0931   -5.6354    5.5192 O.3       1 <0>        -0.3594
     29 C22        -1.0396   -4.6879    6.5876 C.3       1 <0>         0.0385
     30 C23        -0.3151   -4.8142   -1.3154 C.2       1 <0>        -0.3525
     31 C24        -0.3271   -4.0186   -2.4162 C.2       1 <0>         0.4384
     32 O6          0.0103   -2.7200   -2.3568 O.3       1 <0>        -0.2353
     33 N3         -0.6937   -4.5558   -3.6209 N.pl3     1 <0>        -0.8253
     34 C25        -0.6744   -6.1650   -1.4354 C.2       1 <0>         0.5322
     35 O7          0.1888   -7.0233   -1.4794 O.2       1 <0>        -0.4828
     36 O8         -1.9775   -6.5138   -1.5022 O.3       1 <0>        -0.3488
     37 C26        -2.2708   -7.9071   -1.6237 C.3       1 <0>         0.0289
     38 H1          1.0024    1.8681    0.0564 H         1 <0>         0.0991
     39 H2         -0.5613    1.8567   -0.7941 H         1 <0>         0.0990
     40 H3         -0.5155    1.8242    0.9850 H         1 <0>         0.0887
     41 H4         -0.0341   -0.1014   -2.0606 H         1 <0>         0.1639
     42 H5          0.6148   -0.5626    3.2308 H         1 <0>         0.1334
     43 H6          0.5665    0.9799    2.3439 H         1 <0>         0.1109
     44 H7         -1.7108   -1.5165    4.1677 H         1 <0>         0.1529
     45 H8         -4.1307   -0.3724    4.5291 H         1 <0>         0.1493
     46 H9         -4.1242    1.8777    3.1861 H         1 <0>         0.2059
     47 H10         2.8127   -4.0677   -1.0336 H         1 <0>         0.1278
     48 H11         4.7286   -5.1574    0.1120 H         1 <0>         0.1244
     49 H12         4.4022   -6.4344    2.1565 H         1 <0>         0.1255
     50 H13         2.1612   -6.6945    3.1685 H         1 <0>         0.1284
     51 H14        -1.6912   -6.4820    2.9507 H         1 <0>         0.1274
     52 H15        -0.0601   -7.0537    3.3761 H         1 <0>         0.1258
     53 H16        -0.0056   -4.3854    6.7535 H         1 <0>         0.0592
     54 H17        -1.6367   -3.8137    6.3282 H         1 <0>         0.0580
     55 H18        -1.4356   -5.1418    7.4960 H         1 <0>         0.1007
     56 H19        -1.0126   -5.4707   -3.6670 H         1 <0>         0.4254
     57 H20        -0.6345   -4.0216   -4.4284 H         1 <0>         0.4142
     58 H21        -1.8165   -8.2959   -2.5350 H         1 <0>         0.0608
     59 H22        -1.8689   -8.4395   -0.7616 H         1 <0>         0.0595
     60 H23        -3.3507   -8.0486   -1.6670 H         1 <0>         0.1025
@<TRIPOS>BOND
     1    1    2 1
     2    1   38 1
     3    1   39 1
     4    1   40 1
     5    2    8 1
     6    2    3 2
     7    3    4 1
     8    3   41 1
     9    4   32 1
    10    4    5 2
    11    5    6 1
    12    5   15 1
    13    6    7 2
    14    6    8 am
    15    8    9 1
    16    9   10 1
    17    9   42 1
    18    9   43 1
    19   10   14 1
    20   10   11 2
    21   11   12 1
    22   11   44 1
    23   12   13 2
    24   12   45 1
    25   13   14 1
    26   13   46 1
    27   15   23 1
    28   15   16 1
    29   15   30 1
    30   16   21 ar
    31   16   17 ar
    32   17   18 ar
    33   17   47 1
    34   18   19 ar
    35   18   48 1
    36   19   20 ar
    37   19   49 1
    38   20   21 ar
    39   20   50 1
    40   21   22 1
    41   22   23 am
    42   22   25 1
    43   23   24 2
    44   25   26 1
    45   25   51 1
    46   25   52 1
    47   26   27 2
    48   26   28 1
    49   28   29 1
    50   29   53 1
    51   29   54 1
    52   29   55 1
    53   30   31 2
    54   30   34 1
    55   31   32 1
    56   31   33 1
    57   33   56 1
    58   33   57 1
    59   34   35 2
    60   34   36 1
    61   36   37 1
    62   37   58 1
    63   37   59 1
    64   37   60 1
@<TRIPOS>MOLECULE
ZINC24286536
   58    61     0     0     0
SMALL
USER_CHARGES

@<TRIPOS>ATOM
      1 C1          0.5527    1.3368    0.3705 C.3       1 <0>        -0.1628
      2 C2          0.0329   -0.0523   -0.0051 C.3       1 <0>         0.1244
      3 H1         -1.0526   -0.0209   -0.0993 H         1 <0>         0.1174
      4 C3          0.6389   -0.4774   -1.3178 C.2       1 <0>         0.5185
      5 O1          1.6052   -1.2101   -1.3307 O.2       1 <0>        -0.5339
      6 N1          0.1069   -0.0433   -2.4776 N.am      1 <0>        -0.6074
      7 C4         -0.9867    0.9379   -2.4786 C.3       1 <0>         0.0989
      8 C5         -2.1484    0.3806   -3.3072 C.3       1 <0>        -0.1184
      9 C6         -1.6409    0.0036   -4.7010 C.3       1 <0>        -0.1047
     10 C7         -0.5698   -1.0827   -4.5791 C.3       1 <0>        -0.1274
     11 C8          0.6136   -0.5377   -3.7650 C.3       1 <0>         0.1136
     12 C9         -2.7882   -0.5134   -5.5302 C.2       1 <0>         0.5175
     13 O2         -3.9019   -0.5743   -5.0535 O.2       1 <0>        -0.5102
     14 N2         -2.5767   -0.9080   -6.8014 N.am      1 <0>        -0.6696
     15 C10        -3.6195   -1.4840   -7.5387 C.ar      1 <0>         0.1529
     16 C11        -3.3515   -2.5085   -8.4366 C.ar      1 <0>        -0.1328
     17 C12        -4.3789   -3.0779   -9.1641 C.ar      1 <0>        -0.0807
     18 C13        -5.6792   -2.6282   -9.0003 C.ar      1 <0>         0.0183
     19 C14        -5.9512   -1.6005   -8.1003 C.ar      1 <0>         0.0527
     20 C15        -4.9215   -1.0343   -7.3674 C.ar      1 <0>        -0.1037
     21 O3         -7.2916   -1.3432   -8.1239 O.3       1 <0>        -0.3057
     22 C16        -7.7766   -1.9403   -9.3410 C.3       1 <0>         0.2129
     23 O4         -6.8503   -3.0146   -9.5877 O.3       1 <0>        -0.3076
     24 N3          0.4051   -1.0115    1.0378 N.am      1 <0>        -0.7088
     25 C17        -0.3733   -1.1568    2.1284 C.2       1 <0>         0.5669
     26 O5         -1.3842   -0.4922    2.2467 O.2       1 <0>        -0.5193
     27 C18         0.0022   -2.1248    3.1810 C.ar      1 <0>        -0.1328
     28 C19         1.1655   -2.8855    3.0510 C.ar      1 <0>        -0.0365
     29 C20         1.5104   -3.7864    4.0369 C.ar      1 <0>        -0.1193
     30 C21         0.7060   -3.9374    5.1527 C.ar      1 <0>        -0.0294
     31 C22        -0.4483   -3.1870    5.2874 C.ar      1 <0>        -0.0551
     32 C23        -0.8016   -2.2778    4.3115 C.ar      1 <0>         0.0032
     33 N4         -1.3031   -3.3553    6.4840 N.pl3     1 <0>         0.0312
     34 O6         -0.9922   -4.1480    7.3424 O.2       1 <0>        -0.1509
     35 O7         -2.3122   -2.7002    6.6031 O.3       1 <0>        -0.1481
     36 H2          1.6256    1.2854    0.5558 H         1 <0>         0.0694
     37 H3          0.3580    2.0309   -0.4471 H         1 <0>         0.0758
     38 H4          0.0447    1.6837    1.2703 H         1 <0>         0.0798
     39 H5         -1.3194    1.1154   -1.4559 H         1 <0>         0.0959
     40 H6         -0.6388    1.8723   -2.9192 H         1 <0>         0.0818
     41 H7         -2.5541   -0.5039   -2.8162 H         1 <0>         0.0796
     42 H8         -2.9277    1.1375   -3.3963 H         1 <0>         0.0915
     43 H9         -1.2130    0.8832   -5.1818 H         1 <0>         0.1076
     44 H10        -0.9903   -1.9534   -4.0760 H         1 <0>         0.0773
     45 H11        -0.2256   -1.3673   -5.5733 H         1 <0>         0.0845
     46 H12         1.0893    0.2787   -4.3084 H         1 <0>         0.0770
     47 H13         1.3371   -1.3343   -3.5914 H         1 <0>         0.1003
     48 H14        -1.7026   -0.7933   -7.2058 H         1 <0>         0.4147
     49 H15        -2.3388   -2.8605   -8.5668 H         1 <0>         0.1423
     50 H16        -4.1681   -3.8748   -9.8619 H         1 <0>         0.1418
     51 H17        -5.1309   -0.2405   -6.6657 H         1 <0>         0.1509
     52 H18        -8.7854   -2.3289   -9.2015 H         1 <0>         0.1337
     53 H19        -7.7526   -1.2187  -10.1576 H         1 <0>         0.0864
     54 H20         1.2117   -1.5419    0.9435 H         1 <0>         0.4106
     55 H21         1.7938   -2.7691    2.1804 H         1 <0>         0.1481
     56 H22         2.4101   -4.3756    3.9376 H         1 <0>         0.1578
     57 H23         0.9803   -4.6445    5.9216 H         1 <0>         0.1612
     58 H24        -1.7006   -1.6893    4.4200 H         1 <0>         0.1681
@<TRIPOS>BOND
     1    1    2 1
     2    1   36 1
     3    1   37 1
     4    1   38 1
     5    2    3 1
     6    2    4 1
     7    2   24 1
     8    4    5 2
     9    4    6 am
    10    6   11 1
    11    6    7 1
    12    7    8 1
    13    7   39 1
    14    7   40 1
    15    8    9 1
    16    8   41 1
    17    8   42 1
    18    9   10 1
    19    9   12 1
    20    9   43 1
    21   10   11 1
    22   10   44 1
    23   10   45 1
    24   11   46 1
    25   11   47 1
    26   12   13 2
    27   12   14 am
    28   14   15 1
    29   14   48 1
    30   15   20 ar
    31   15   16 ar
    32   16   17 ar
    33   16   49 1
    34   17   18 ar
    35   17   50 1
    36   18   23 1
    37   18   19 ar
    38   19   20 ar
    39   19   21 1
    40   20   51 1
    41   21   22 1
    42   22   23 1
    43   22   52 1
    44   22   53 1
    45   24   25 am
    46   24   54 1
    47   25   26 2
    48   25   27 1
    49   27   32 ar
    50   27   28 ar
    51   28   29 ar
    52   28   55 1
    53   29   30 ar
    54   29   56 1
    55   30   31 ar
    56   30   57 1
    57   31   32 ar
    58   31   33 1
    59   32   58 1
    60   33   34 2
    61   33   35 1
@<TRIPOS>MOLECULE
ZINC65748159
   57    60     0     0     0
SMALL
USER_CHARGES

@<TRIPOS>ATOM
      1 C1         -0.4089    1.4926    0.8928 C.3       1 <0>        -0.1789
      2 C2         -0.3885   -0.0142    0.8845 C.2       1 <0>         0.5169
      3 O1          0.3185   -0.6154    1.6653 O.2       1 <0>        -0.5438
      4 N1         -1.1558   -0.6938    0.0094 N.am      1 <0>        -0.7045
      5 C3         -1.1360   -2.1586    0.0013 C.3       1 <0>         0.0981
      6 H1         -0.2367   -2.5140    0.5044 H         1 <0>         0.1214
      7 C4         -2.3744   -2.6920    0.7277 C.3       1 <0>         0.1074
      8 H2         -2.4016   -2.2929    1.7417 H         1 <0>         0.0811
      9 C5         -3.6301   -2.2540   -0.0273 C.3       1 <0>         0.0694
     10 H3         -4.5099   -2.6860    0.4496 H         1 <0>         0.0870
     11 C6         -3.5502   -2.7329   -1.4805 C.3       1 <0>         0.0342
     12 H4         -3.5639   -3.8224   -1.5096 H         1 <0>         0.0974
     13 C7         -4.7600   -2.1798   -2.2446 C.3       1 <0>         0.0655
     14 O2         -4.7908   -0.7574   -2.0914 O.3       1 <0>        -0.3711
     15 C8         -4.8589   -0.3234   -0.7311 C.3       1 <0>         0.2985
     16 H5         -5.7767   -0.6963   -0.2765 H         1 <0>         0.0706
     17 O3         -3.7312   -0.8281   -0.0111 O.3       1 <0>        -0.3736
     18 C9         -4.8512    1.1829   -0.6837 C.ar      1 <0>        -0.1249
     19 C10        -3.8398    1.8471   -0.0147 C.ar      1 <0>        -0.0522
     20 C11        -3.8307    3.2278    0.0306 C.ar      1 <0>        -0.1568
     21 C12        -4.8372    3.9479   -0.5963 C.ar      1 <0>         0.1416
     22 C13        -5.8507    3.2790   -1.2672 C.ar      1 <0>        -0.2096
     23 C14        -5.8524    1.8983   -1.3140 C.ar      1 <0>        -0.0461
     24 O4         -4.8308    5.3061   -0.5528 O.3       1 <0>        -0.3151
     25 C15        -5.8985    5.9817   -1.2202 C.3       1 <0>         0.0251
     26 O5         -2.3443   -2.2503   -2.0764 O.3       1 <0>        -0.3588
     27 C16        -1.1477   -2.6633   -1.4444 C.3       1 <0>         0.2401
     28 H6         -0.2873   -2.2593   -1.9779 H         1 <0>         0.1242
     29 O6         -1.0871   -4.0910   -1.4517 O.3       1 <0>        -0.2997
     30 C17        -0.8785   -4.6935   -2.6519 C.ar      1 <0>         0.1845
     31 C18        -0.7294   -3.9261   -3.7980 C.ar      1 <0>        -0.1979
     32 C19        -0.5170   -4.5410   -5.0167 C.ar      1 <0>        -0.0135
     33 C20        -0.4529   -5.9199   -5.0948 C.ar      1 <0>        -0.0873
     34 C21        -0.6016   -6.6870   -3.9541 C.ar      1 <0>        -0.0170
     35 C22        -0.8085   -6.0767   -2.7321 C.ar      1 <0>        -0.1463
     36 N2         -0.2253   -6.5761   -6.4018 N.pl3     1 <0>         0.0385
     37 O7         -0.0955   -5.9064   -7.4000 O.2       1 <0>        -0.1628
     38 O8         -0.1691   -7.7818   -6.4713 O.3       1 <0>        -0.1614
     39 O9         -2.3203   -4.1191    0.7779 O.3       1 <0>        -0.5419
     40 H7          0.2698    1.8610    1.6620 H         1 <0>         0.0978
     41 H8         -0.0913    1.8657   -0.0809 H         1 <0>         0.0924
     42 H9         -1.4200    1.8411    1.1032 H         1 <0>         0.0918
     43 H10        -1.7213   -0.2129   -0.6151 H         1 <0>         0.4154
     44 H11        -4.6710   -2.4317   -3.3013 H         1 <0>         0.1136
     45 H12        -5.6758   -2.6108   -1.8400 H         1 <0>         0.0776
     46 H13        -3.0564    1.2861    0.4731 H         1 <0>         0.1363
     47 H14        -3.0408    3.7462    0.5538 H         1 <0>         0.1353
     48 H15        -6.6355    3.8373   -1.7560 H         1 <0>         0.1332
     49 H16        -6.6388    1.3773   -1.8399 H         1 <0>         0.1297
     50 H17        -5.8869    5.7225   -2.2789 H         1 <0>         0.0578
     51 H18        -6.8498    5.6792   -0.7825 H         1 <0>         0.0575
     52 H19        -5.7733    7.0587   -1.1084 H         1 <0>         0.1029
     53 H20        -0.7797   -2.8490   -3.7376 H         1 <0>         0.1545
     54 H21        -0.4013   -3.9440   -5.9093 H         1 <0>         0.1563
     55 H22        -0.5516   -7.7639   -4.0178 H         1 <0>         0.1606
     56 H23        -0.9202   -6.6762   -1.8407 H         1 <0>         0.1565
     57 H24        -1.5462   -4.4673    1.2411 H         1 <0>         0.3928
@<TRIPOS>BOND
     1    1    2 1
     2    1   40 1
     3    1   41 1
     4    1   42 1
     5    2    3 2
     6    2    4 am
     7    4    5 1
     8    4   43 1
     9    5    6 1
    10    5   27 1
    11    5    7 1
    12    7    8 1
    13    7    9 1
    14    7   39 1
    15    9   10 1
    16    9   17 1
    17    9   11 1
    18   11   12 1
    19   11   13 1
    20   11   26 1
    21   13   14 1
    22   13   44 1
    23   13   45 1
    24   14   15 1
    25   15   16 1
    26   15   17 1
    27   15   18 1
    28   18   23 ar
    29   18   19 ar
    30   19   20 ar
    31   19   46 1
    32   20   21 ar
    33   20   47 1
    34   21   22 ar
    35   21   24 1
    36   22   23 ar
    37   22   48 1
    38   23   49 1
    39   24   25 1
    40   25   50 1
    41   25   51 1
    42   25   52 1
    43   26   27 1
    44   27   28 1
    45   27   29 1
    46   29   30 1
    47   30   35 ar
    48   30   31 ar
    49   31   32 ar
    50   31   53 1
    51   32   33 ar
    52   32   54 1
    53   33   34 ar
    54   33   36 1
    55   34   35 ar
    56   34   55 1
    57   35   56 1
    58   36   37 2
    59   36   38 1
    60   39   57 1
@<TRIPOS>MOLECULE
ZINC13304339
   41    44     0     0     0
SMALL
USER_CHARGES
2-[[2-(6,7-dihydro-5H-cyclopenta[f]benzofuran-3-yl)acetyl]amino]-4-fluoro-benzoic acid
@<TRIPOS>ATOM
      1 C1          3.5131   -4.7402    5.4815 C.ar      1 <0>        -0.1866
      2 C2          4.1977   -5.2574    4.4044 C.ar      1 <0>        -0.0332
      3 C3          3.8390   -4.8851    3.1057 C.ar      1 <0>        -0.1541
      4 C4          2.7802   -3.9838    2.9089 C.ar      1 <0>         0.2030
      5 C5          2.1048   -3.4677    4.0046 C.ar      1 <0>        -0.1760
      6 C6          2.4670   -3.8489    5.2844 C.ar      1 <0>         0.1080
      7 F1          1.8025   -3.3472    6.3483 F         1 <0>        -0.1457
      8 N1          2.4139   -3.6056    1.6196 N.am      1 <0>        -0.6444
      9 C7          1.9896   -2.3489    1.3809 C.2       1 <0>         0.5106
     10 O1          1.8498   -1.5710    2.3008 O.2       1 <0>        -0.5263
     11 C8          1.6889   -1.9102   -0.0291 C.3       1 <0>        -0.0682
     12 C9          1.2359   -0.4729   -0.0223 C.2       1 <0>        -0.1506
     13 C10        -0.0276   -0.0276    0.0055 C.2       1 <0>         0.0159
     14 O2         -0.0452    1.3167    0.0030 O.3       1 <0>        -0.1932
     15 C11         1.2078    1.8142   -0.0260 C.ar      1 <0>         0.0539
     16 C12         2.0900    0.7207   -0.0440 C.ar      1 <0>        -0.1078
     17 C13         3.4657    0.9349   -0.0759 C.ar      1 <0>        -0.0535
     18 C14         3.9604    2.2231   -0.0892 C.ar      1 <0>        -0.1127
     19 C15         3.0905    3.3044   -0.0707 C.ar      1 <0>        -0.0751
     20 C16         1.7239    3.1020   -0.0396 C.ar      1 <0>        -0.1001
     21 C17         3.8832    4.5948   -0.0905 C.3       1 <0>        -0.0770
     22 C18         5.2960    4.1947   -0.5653 C.3       1 <0>        -0.1192
     23 C19         5.3904    2.7191   -0.1235 C.3       1 <0>        -0.0800
     24 C20         4.5672   -5.4355    1.9501 C.2       1 <0>         0.4978
     25 O3          4.3186   -5.0368    0.8293 O.co2     1 <0>        -0.6325
     26 H1          3.7916   -5.0289    6.4842 H         1 <0>         0.1305
     27 H2          5.0112   -5.9499    4.5630 H         1 <0>         0.1444
     28 H3          1.2929   -2.7705    3.8588 H         1 <0>         0.1463
     29 H4          2.4641   -4.2468    0.8934 H         1 <0>         0.4266
     30 H5          0.9003   -2.5377   -0.4445 H         1 <0>         0.1079
     31 H6          2.5876   -2.0050   -0.6386 H         1 <0>         0.1119
     32 H7         -0.9047   -0.6574    0.0264 H         1 <0>         0.2071
     33 H8          4.1440    0.0947   -0.0904 H         1 <0>         0.1254
     34 H9          1.0549    3.9497   -0.0255 H         1 <0>         0.1270
     35 H10         3.4361    5.3026   -0.7886 H         1 <0>         0.0758
     36 H11         3.9285    5.0262    0.9094 H         1 <0>         0.0820
     37 H12         5.3792    4.2807   -1.6487 H         1 <0>         0.0724
     38 H13         6.0563    4.7994   -0.0709 H         1 <0>         0.0770
     39 H14         5.8389    2.6489    0.8675 H         1 <0>         0.0808
     40 H15         5.9725    2.1450   -0.8444 H         1 <0>         0.0764
     41 O4          5.5093   -6.3812    2.1355 O.co2     1 <0>        -0.7443
@<TRIPOS>BOND
     1    1    6 ar
     2    1    2 ar
     3    1   26 1
     4    2    3 ar
     5    2   27 1
     6    3    4 ar
     7    3   24 1
     8    4    5 ar
     9    4    8 1
    10    5    6 ar
    11    5   28 1
    12    6    7 1
    13    8    9 am
    14    8   29 1
    15    9   10 2
    16    9   11 1
    17   11   12 1
    18   11   30 1
    19   11   31 1
    20   12   16 1
    21   12   13 2
    22   13   14 1
    23   13   32 1
    24   14   15 1
    25   15   20 ar
    26   15   16 ar
    27   16   17 ar
    28   17   18 ar
    29   17   33 1
    30   18   23 1
    31   18   19 ar
    32   19   20 ar
    33   19   21 1
    34   20   34 1
    35   21   22 1
    36   21   35 1
    37   21   36 1
    38   22   23 1
    39   22   37 1
    40   22   38 1
    41   23   39 1
    42   23   40 1
    43   24   25 2
    44   24   41 1
@<TRIPOS>MOLECULE
ZINC34493743
   34    35     0     0     0
SMALL
USER_CHARGES

@<TRIPOS>ATOM
      1 C1         -0.0295    1.3249   -0.0720 C.ar      1 <0>        -0.1623
      2 C2          1.0689    1.8696   -0.7123 C.ar      1 <0>        -0.0701
      3 C3          2.2835    1.2135   -0.6815 C.ar      1 <0>        -0.1347
      4 C4          2.4017    0.0054   -0.0060 C.ar      1 <0>         0.2352
      5 C5          1.2970   -0.5385    0.6363 C.ar      1 <0>        -0.2447
      6 C6          0.0848    0.1226    0.6012 C.ar      1 <0>        -0.0563
      7 C7          1.4205   -1.8491    1.3699 C.3       1 <0>         0.5088
      8 F1          0.1842   -2.1881    1.9303 F         1 <0>        -0.1799
      9 F2          1.8167   -2.8489    0.4751 F         1 <0>        -0.1809
     10 F3          2.3750   -1.7270    2.3853 F         1 <0>        -0.1741
     11 N1          3.6301   -0.6618    0.0268 N.pl3     1 <0>        -0.6729
     12 C8          4.7886    0.0363   -0.1325 C.2       1 <0>         0.5465
     13 O1          4.7598    1.3804   -0.2077 O.3       1 <0>        -0.6134
     14 C9          6.0055   -0.6414   -0.2179 C.2       1 <0>        -0.4392
     15 C10         6.0361   -2.0709   -0.1379 C.1       1 <0>         0.2939
     16 N2          6.0604   -3.2049   -0.0745 N.1       1 <0>        -0.5267
     17 C11         7.2485    0.1076   -0.3888 C.2       1 <0>         0.4575
     18 O2          7.2388    1.3242   -0.3342 O.2       1 <0>        -0.4766
     19 C12         8.5184   -0.6118   -0.6281 C.ar      1 <0>        -0.1180
     20 C13         8.5093   -1.8619   -1.2494 C.ar      1 <0>        -0.0732
     21 C14         9.6964   -2.5280   -1.4699 C.ar      1 <0>        -0.1194
     22 C15        10.8963   -1.9592   -1.0758 C.ar      1 <0>        -0.0283
     23 C16        10.9116   -0.7193   -0.4586 C.ar      1 <0>        -0.1231
     24 C17         9.7313   -0.0409   -0.2388 C.ar      1 <0>        -0.0680
     25 Cl1        12.3868   -2.8039   -1.3562 Cl        1 <0>        -0.0830
     26 H1         -0.9773    1.8421   -0.0941 H         1 <0>         0.1261
     27 H2          0.9763    2.8088   -1.2373 H         1 <0>         0.1289
     28 H3          3.1406    1.6390   -1.1823 H         1 <0>         0.1704
     29 H4         -0.7747   -0.2998    1.1004 H         1 <0>         0.1322
     30 H5          3.6571   -1.6218    0.1630 H         1 <0>         0.4032
     31 H6          7.5742   -2.3067   -1.5564 H         1 <0>         0.1398
     32 H7          9.6906   -3.4952   -1.9504 H         1 <0>         0.1308
     33 H8         11.8502   -0.2809   -0.1532 H         1 <0>         0.1323
     34 H9          9.7449    0.9282    0.2378 H         1 <0>         0.1391
@<TRIPOS>BOND
     1    1    6 ar
     2    1    2 ar
     3    1   26 1
     4    2    3 ar
     5    2   27 1
     6    3    4 ar
     7    3   28 1
     8    4    5 ar
     9    4   11 1
    10    5    6 ar
    11    5    7 1
    12    6   29 1
    13    7    8 1
    14    7    9 1
    15    7   10 1
    16   11   12 1
    17   11   30 1
    18   12   13 1
    19   12   14 2
    20   14   15 1
    21   14   17 1
    22   15   16 3
    23   17   18 2
    24   17   19 1
    25   19   24 ar
    26   19   20 ar
    27   20   21 ar
    28   20   31 1
    29   21   22 ar
    30   21   32 1
    31   22   23 ar
    32   22   25 1
    33   23   24 ar
    34   23   33 1
    35   24   34 1
@<TRIPOS>MOLECULE
ZINC47361721
   43    46     0     0     0
SMALL
USER_CHARGES

@<TRIPOS>ATOM
      1 C1          0.0837    1.6099   -0.1601 C.3       1 <0>        -0.0867
      2 C2          0.0790    0.1060   -0.0632 C.2       1 <0>         0.1148
      3 C3          0.0275   -0.7597   -1.1342 C.2       1 <0>        -0.1403
      4 C4          0.0440   -2.1214   -0.5657 C.ar      1 <0>        -0.0632
      5 C5          0.0125   -3.3989   -1.1185 C.ar      1 <0>        -0.0654
      6 C6          0.0418   -4.5009   -0.2919 C.ar      1 <0>        -0.1554
      7 C7          0.1018   -4.3412    1.0849 C.ar      1 <0>        -0.1135
      8 C8          0.1335   -3.0828    1.6448 C.ar      1 <0>        -0.1338
      9 C9          0.1053   -1.9575    0.8268 C.ar      1 <0>         0.0909
     10 N1          0.1305   -0.6026    1.0891 N.pl3     1 <0>        -0.5825
     11 H1          0.1761   -0.2124    1.9759 H         1 <0>         0.4073
     12 C10        -0.0324   -0.4007   -2.5507 C.2       1 <0>         0.4270
     13 O1          1.0308   -0.6290   -3.3503 O.3       1 <0>        -0.6349
     14 C11        -1.1895    0.1783   -3.0759 C.2       1 <0>        -0.4205
     15 C12        -1.2481    0.5298   -4.4629 C.1       1 <0>         0.3263
     16 N2         -1.2946    0.8087   -5.5632 N.1       1 <0>        -0.5388
     17 C13        -2.3425    0.4260   -2.2088 C.2       1 <0>         0.4697
     18 O2         -2.3335    0.0318   -1.0558 O.2       1 <0>        -0.4989
     19 C14        -3.5142    1.1520   -2.7302 C.2       1 <0>        -0.1505
     20 C15        -3.7485    2.4645   -2.3920 C.2       1 <0>        -0.2265
     21 S1         -5.1641    2.8537   -3.2076 S.3       1 <0>         0.1271
     22 C16        -5.4811    1.3094   -4.0096 C.2       1 <0>        -0.1938
     23 C17        -4.4594    0.5113   -3.6235 C.2       1 <0>        -0.0737
     24 C18        -4.3561   -0.9282   -4.1051 C.3       1 <0>        -0.0596
     25 C19        -5.7231   -1.3667   -4.6354 C.3       1 <0>        -0.1168
     26 C20        -6.2366   -0.3501   -5.6590 C.3       1 <0>        -0.1144
     27 C21        -6.6123    0.9459   -4.9201 C.3       1 <0>        -0.0307
     28 H2          1.1113    1.9661   -0.2328 H         1 <0>         0.0702
     29 H3         -0.4715    1.9187   -1.0458 H         1 <0>         0.0853
     30 H4         -0.3853    2.0327    0.7284 H         1 <0>         0.0628
     31 H5         -0.0349   -3.5254   -2.1900 H         1 <0>         0.1192
     32 H6          0.0175   -5.4932   -0.7176 H         1 <0>         0.1160
     33 H7          0.1236   -5.2116    1.7238 H         1 <0>         0.1167
     34 H8          0.1799   -2.9698    2.7179 H         1 <0>         0.1116
     35 H9         -3.1575    3.0995   -1.7488 H         1 <0>         0.1795
     36 H10        -3.6160   -0.9948   -4.9025 H         1 <0>         0.0799
     37 H11        -4.0623   -1.5712   -3.2754 H         1 <0>         0.0770
     38 H12        -5.6308   -2.3435   -5.1102 H         1 <0>         0.0663
     39 H13        -6.4283   -1.4337   -3.8068 H         1 <0>         0.0630
     40 H14        -5.4573   -0.1460   -6.3933 H         1 <0>         0.0689
     41 H15        -7.1175   -0.7505   -6.1608 H         1 <0>         0.0682
     42 H16        -7.5207    0.7971   -4.3363 H         1 <0>         0.0776
     43 H17        -6.7687    1.7421   -5.6479 H         1 <0>         0.0747
@<TRIPOS>BOND
     1    1    2 1
     2    1   28 1
     3    1   29 1
     4    1   30 1
     5    2   10 1
     6    2    3 2
     7    3    4 1
     8    3   12 1
     9    4    9 ar
    10    4    5 ar
    11    5    6 ar
    12    5   31 1
    13    6    7 ar
    14    6   32 1
    15    7    8 ar
    16    7   33 1
    17    8    9 ar
    18    8   34 1
    19    9   10 1
    20   10   11 1
    21   12   13 1
    22   12   14 2
    23   14   15 1
    24   14   17 1
    25   15   16 3
    26   17   18 2
    27   17   19 1
    28   19   23 1
    29   19   20 2
    30   20   21 1
    31   20   35 1
    32   21   22 1
    33   22   27 1
    34   22   23 2
    35   23   24 1
    36   24   25 1
    37   24   36 1
    38   24   37 1
    39   25   26 1
    40   25   38 1
    41   25   39 1
    42   26   27 1
    43   26   40 1
    44   26   41 1
    45   27   42 1
    46   27   43 1
@<TRIPOS>MOLECULE
ZINC58355518
   40    41     0     0     0
SMALL
USER_CHARGES

@<TRIPOS>ATOM
      1 C1         -0.0187    1.5258    0.0104 C.3       1 <0>        -0.1454
      2 C2          0.0021   -0.0041    0.0020 C.3       1 <0>        -0.0341
      3 C3          0.7421   -0.5109    1.2415 C.3       1 <0>        -0.1454
      4 C4         -1.4333   -0.5336    0.0129 C.3       1 <0>         0.1353
      5 N1         -2.1190   -0.0612    1.2182 N.am      1 <0>        -0.7435
      6 C5         -3.4027   -0.4055    1.4419 C.2       1 <0>         0.5705
      7 O1         -3.9917   -1.1082    0.6433 O.2       1 <0>        -0.5127
      8 C6         -4.0932    0.0703    2.6556 C.ar      1 <0>        -0.2968
      9 C7         -3.4289    0.8846    3.5804 C.ar      1 <0>        -0.0028
     10 C8         -4.1210    1.3045    4.7022 C.ar      1 <0>        -0.2813
     11 C9         -5.4362    0.9120    4.8768 C.ar      1 <0>         0.1214
     12 N2         -6.0427    0.1439    3.9929 N.ar      1 <0>        -0.5386
     13 C10        -5.4292   -0.2804    2.9010 C.ar      1 <0>         0.4515
     14 O2         -6.0927   -1.0631    2.0171 O.3       1 <0>        -0.6356
     15 C11        -6.1890    1.3701    6.0993 C.3       1 <0>         0.5151
     16 F1         -6.8285    2.5839    5.8255 F         1 <0>        -0.1795
     17 F2         -7.1435    0.4081    6.4468 F         1 <0>        -0.1702
     18 F3         -5.2939    1.5434    7.1604 F         1 <0>        -0.1803
     19 C12         0.7074   -0.4901   -1.2379 C.ar      1 <0>        -0.0969
     20 C13         0.0364   -1.2842   -2.1487 C.ar      1 <0>        -0.0924
     21 C14         0.6831   -1.7301   -3.2860 C.ar      1 <0>        -0.1253
     22 C15         2.0018   -1.3824   -3.5140 C.ar      1 <0>        -0.0983
     23 C16         2.6745   -0.5883   -2.6051 C.ar      1 <0>        -0.1551
     24 C17         2.0260   -0.1366   -1.4679 C.ar      1 <0>         0.1028
     25 F4          2.6813    0.6438   -0.5809 F         1 <0>        -0.1356
     26 H1          1.0039    1.9031    0.0027 H         1 <0>         0.0653
     27 H2         -0.5459    1.8868   -0.8726 H         1 <0>         0.0596
     28 H3         -0.5289    1.8773    0.9072 H         1 <0>         0.0641
     29 H4          0.2319   -0.1594    2.1383 H         1 <0>         0.0641
     30 H5          0.7568   -1.6008    1.2356 H         1 <0>         0.0596
     31 H6          1.7647   -0.1336    1.2338 H         1 <0>         0.0653
     32 H7         -1.9605   -0.1726   -0.8702 H         1 <0>         0.0662
     33 H8         -1.4185   -1.6235    0.0069 H         1 <0>         0.0662
     34 H9         -1.6491    0.4994    1.8553 H         1 <0>         0.3910
     35 H10        -2.4015    1.1775    3.4222 H         1 <0>         0.1157
     36 H11        -3.6385    1.9332    5.4359 H         1 <0>         0.1223
     37 H12        -0.9935   -1.5567   -1.9714 H         1 <0>         0.1408
     38 H13         0.1581   -2.3508   -3.9969 H         1 <0>         0.1299
     39 H14         2.5063   -1.7320   -4.4026 H         1 <0>         0.1301
     40 H15         3.7046   -0.3171   -2.7832 H         1 <0>         0.1329
@<TRIPOS>BOND
     1    1    2 1
     2    1   26 1
     3    1   27 1
     4    1   28 1
     5    2    3 1
     6    2    4 1
     7    2   19 1
     8    3   29 1
     9    3   30 1
    10    3   31 1
    11    4    5 1
    12    4   32 1
    13    4   33 1
    14    5    6 am
    15    5   34 1
    16    6    7 2
    17    6    8 1
    18    8   13 ar
    19    8    9 ar
    20    9   10 ar
    21    9   35 1
    22   10   11 ar
    23   10   36 1
    24   11   12 ar
    25   11   15 1
    26   12   13 ar
    27   13   14 1
    28   15   16 1
    29   15   17 1
    30   15   18 1
    31   19   24 ar
    32   19   20 ar
    33   20   21 ar
    34   20   37 1
    35   21   22 ar
    36   21   38 1
    37   22   23 ar
    38   22   39 1
    39   23   24 ar
    40   23   40 1
    41   24   25 1
@<TRIPOS>MOLECULE
ZINC64797583
   39    42     0     0     0
SMALL
USER_CHARGES

@<TRIPOS>ATOM
      1 C1         -0.0167    1.3787    0.0096 C.ar      1 <0>        -0.0926
      2 C2          1.1669    2.0883    0.0021 C.ar      1 <0>        -0.0668
      3 C3          2.3852    1.4090   -0.0131 C.ar      1 <0>         0.0311
      4 C4          2.3999    0.0141   -0.0207 C.ar      1 <0>        -0.1465
      5 C5          1.2086   -0.6860   -0.0131 C.ar      1 <0>         0.0877
      6 C6          0.0021   -0.0041    0.0020 C.ar      1 <0>        -0.1567
      7 F1          1.2199   -2.0369   -0.0208 F         1 <0>        -0.1473
      8 C7          3.6578    2.1655   -0.0217 C.2       1 <0>        -0.1059
      9 C8          4.5347    2.1230   -1.1040 C.2       1 <0>         0.1257
     10 C9          5.6770    2.8724   -1.0032 C.2       1 <0>        -0.3185
     11 S1          5.6161    3.6089    0.4889 S.3       1 <0>         0.2574
     12 C10         4.0493    2.9712    1.0550 C.2       1 <0>        -0.1358
     13 C11         3.3779    3.2144    2.2747 C.2       1 <0>         0.5436
     14 O1          2.2963    2.6819    2.4957 O.co2     1 <0>        -0.6502
     15 O2          3.8773    3.9577    3.1115 O.co2     1 <0>        -0.6755
     16 C12         6.7314    2.9751   -2.0645 C.3       1 <0>         0.0503
     17 H1          7.7076    3.1158   -1.6004 H         1 <0>         0.1084
     18 C13         6.7268    1.6729   -2.8744 C.3       1 <0>        -0.1254
     19 C14         5.3192    1.2419   -3.1748 C.2       1 <0>         0.5238
     20 O3          5.0806    0.7551   -4.2599 O.2       1 <0>        -0.5406
     21 N1          4.3131    1.3723   -2.2936 N.am      1 <0>        -0.6490
     22 C15         6.4277    4.1396   -2.9716 C.ar      1 <0>        -0.0607
     23 C16         5.2386    4.1752   -3.6757 C.ar      1 <0>        -0.0982
     24 C17         4.9594    5.2433   -4.5074 C.ar      1 <0>        -0.0863
     25 C18         5.8700    6.2767   -4.6351 C.ar      1 <0>        -0.0898
     26 C19         7.0597    6.2406   -3.9303 C.ar      1 <0>        -0.0898
     27 C20         7.3357    5.1747   -3.0948 C.ar      1 <0>        -0.1031
     28 Br1         5.4888    7.7379   -5.7733 Br        1 <0>        -0.0566
     29 H2         -0.9599    1.9045    0.0260 H         1 <0>         0.1293
     30 H3          1.1500    3.1682    0.0077 H         1 <0>         0.1247
     31 H4          3.3400   -0.5173   -0.0328 H         1 <0>         0.1265
     32 H5         -0.9270   -0.5547    0.0083 H         1 <0>         0.1285
     33 H6          7.2620    1.8302   -3.8108 H         1 <0>         0.1100
     34 H7          7.2273    0.8919   -2.3019 H         1 <0>         0.1093
     35 H8          3.4510    0.9620   -2.4648 H         1 <0>         0.4108
     36 H9          4.5278    3.3682   -3.5762 H         1 <0>         0.1279
     37 H10         4.0305    5.2708   -5.0578 H         1 <0>         0.1312
     38 H11         7.7709    7.0473   -4.0297 H         1 <0>         0.1336
     39 H12         8.2627    5.1485   -2.5413 H         1 <0>         0.1354
@<TRIPOS>BOND
     1    1    6 ar
     2    1    2 ar
     3    1   29 1
     4    2    3 ar
     5    2   30 1
     6    3    4 ar
     7    3    8 1
     8    4    5 ar
     9    4   31 1
    10    5    6 ar
    11    5    7 1
    12    6   32 1
    13    8   12 2
    14    8    9 1
    15    9   21 1
    16    9   10 2
    17   10   11 1
    18   10   16 1
    19   11   12 1
    20   12   13 1
    21   13   14 2
    22   13   15 1
    23   16   17 1
    24   16   18 1
    25   16   22 1
    26   18   19 1
    27   18   33 1
    28   18   34 1
    29   19   20 2
    30   19   21 am
    31   21   35 1
    32   22   27 ar
    33   22   23 ar
    34   23   24 ar
    35   23   36 1
    36   24   25 ar
    37   24   37 1
    38   25   26 ar
    39   25   28 1
    40   26   27 ar
    41   26   38 1
    42   27   39 1
@<TRIPOS>MOLECULE
ZINC03320665
   39    41     0     0     0
SMALL
USER_CHARGES
3-acetyl-N-(3-methylbenzothiazol-2-ylidene)amino-benzenesulfonamide
@<TRIPOS>ATOM
      1 C1         -8.8305    6.3605    3.9342 C.3       1 <0>        -0.1920
      2 C2         -8.0250    6.5674    2.6775 C.2       1 <0>         0.3935
      3 O1         -8.3432    6.0016    1.6534 O.2       1 <0>        -0.4476
      4 C3         -6.8521    7.4562    2.6932 C.ar      1 <0>        -0.1935
      5 C4         -6.4818    8.1107    3.8726 C.ar      1 <0>        -0.0177
      6 C5         -5.3821    8.9421    3.8791 C.ar      1 <0>        -0.1505
      7 C6         -4.6453    9.1302    2.7224 C.ar      1 <0>         0.0102
      8 C7         -5.0049    8.4859    1.5518 C.ar      1 <0>        -0.6821
      9 C8         -6.1052    7.6549    1.5278 C.ar      1 <0>         0.0485
     10 S1         -4.0588    8.7337    0.0861 S.o2      1 <0>         2.7181
     11 O2         -3.4044    9.9865    0.2320 O.2       1 <0>        -0.9400
     12 O3         -4.9206    8.4471   -1.0069 O.2       1 <0>        -0.9306
     13 N1         -2.8720    7.5790    0.0684 N.pl3     1 <0>        -0.9462
     14 N2         -3.2160    6.2208    0.0645 N.2       1 <0>        -0.2529
     15 C9         -2.2831    5.3132    0.0505 C.2       1 <0>         0.3512
     16 N3         -2.4131    3.9331    0.0448 N.pl3     1 <0>        -0.5273
     17 C10        -1.2765    3.1382    0.0302 C.ar      1 <0>         0.1552
     18 C11        -1.2200    1.7347    0.0173 C.ar      1 <0>        -0.1309
     19 C12        -0.0126    1.0758    0.0080 C.ar      1 <0>        -0.0734
     20 C13         1.1834    1.7714    0.0003 C.ar      1 <0>        -0.1291
     21 C14         1.1575    3.1561    0.0075 C.ar      1 <0>        -0.0372
     22 C15        -0.0492    3.8141    0.0221 C.ar      1 <0>        -0.1419
     23 S2         -0.5113    5.5294    0.0351 S.3       1 <0>        -0.0150
     24 C16        -3.7427    3.3179    0.0546 C.3       1 <0>         0.0749
     25 H1         -9.5586    7.0445    3.9798 H         1 <0>         0.0904
     26 H2         -9.2693    5.3628    3.9243 H         1 <0>         0.0924
     27 H3         -8.1807    6.4630    4.8033 H         1 <0>         0.0865
     28 H4         -7.0562    7.9655    4.7756 H         1 <0>         0.1438
     29 H5         -5.0949    9.4482    4.7889 H         1 <0>         0.1432
     30 H6         -3.7850    9.7831    2.7338 H         1 <0>         0.1470
     31 H7         -6.3871    7.1559    0.6124 H         1 <0>         0.1538
     32 H8         -1.9386    7.8429    0.0607 H         1 <0>         0.4052
     33 H9         -2.1375    1.1649    0.0186 H         1 <0>         0.1321
     34 H10         0.0021   -0.0041    0.0020 H         1 <0>         0.1369
     35 H11         2.1245    1.2417   -0.0116 H         1 <0>         0.1405
     36 H12         2.0809    3.7162    0.0013 H         1 <0>         0.1383
     37 H13        -4.0826    3.1710   -0.9705 H         1 <0>         0.0733
     38 H14        -3.6937    2.3548    0.5627 H         1 <0>         0.0836
     39 H15        -4.4410    3.9703    0.5790 H         1 <0>         0.0895
@<TRIPOS>BOND
     1    1    2 1
     2    1   25 1
     3    1   26 1
     4    1   27 1
     5    2    3 2
     6    2    4 1
     7    4    9 ar
     8    4    5 ar
     9    5    6 ar
    10    5   28 1
    11    6    7 ar
    12    6   29 1
    13    7    8 ar
    14    7   30 1
    15    8    9 ar
    16    8   10 1
    17    9   31 1
    18   10   11 2
    19   10   12 2
    20   10   13 1
    21   13   14 1
    22   13   32 1
    23   14   15 2
    24   15   23 1
    25   15   16 1
    26   16   17 1
    27   16   24 1
    28   17   22 ar
    29   17   18 ar
    30   18   19 ar
    31   18   33 1
    32   19   20 ar
    33   19   34 1
    34   20   21 ar
    35   20   35 1
    36   21   22 ar
    37   21   36 1
    38   22   23 1
    39   24   37 1
    40   24   38 1
    41   24   39 1
@<TRIPOS>MOLECULE
ZINC15141112
   46    50     0     0     0
SMALL
USER_CHARGES
(7R)-7-methyl-N-[(1S)-1-([1,2,4]triazolo[4,5-a]pyridin-3-yl)ethyl]-5,6,7,8-tetrahydrobenzothiopheno[3,2-e]pyrimidin-4-amine
@<TRIPOS>ATOM
      1 C1         -1.3884   -0.2269    1.5383 C.3       1 <0>        -0.1476
      2 C2         -0.0491    0.2319    0.9580 C.3       1 <0>        -0.0864
      3 H1          0.0663   -0.1622   -0.0517 H         1 <0>         0.0769
      4 C3          1.0970   -0.2717    1.8403 C.3       1 <0>        -0.1135
      5 C4          2.4342   -0.0344    1.1387 C.3       1 <0>        -0.0710
      6 C5          2.5228    1.4323    0.7247 C.2       1 <0>        -0.0824
      7 C6          1.4068    2.1916    0.6435 C.2       1 <0>        -0.1488
      8 S1          1.9696    3.7981    0.1387 S.3       1 <0>         0.1167
      9 C7          3.6959    3.4525    0.0356 C.ar      1 <0>         0.1352
     10 C8          3.7806    2.0847    0.4006 C.ar      1 <0>        -0.2411
     11 C9          5.0800    1.5013    0.4107 C.ar      1 <0>         0.4935
     12 N1          6.0822    2.3111    0.0738 N.ar      1 <0>        -0.5968
     13 C10         5.9268    3.5778   -0.2548 C.ar      1 <0>         0.3549
     14 N2          4.7452    4.1829   -0.2842 N.ar      1 <0>        -0.4984
     15 N3          5.2879    0.1763    0.7489 N.pl3     1 <0>        -0.6913
     16 C11         6.6523   -0.3444    0.8662 C.3       1 <0>         0.2465
     17 H2          7.2902    0.1381    0.1257 H         1 <0>         0.1104
     18 C12         7.1899   -0.0545    2.2690 C.3       1 <0>        -0.1584
     19 C13         6.6441   -1.8326    0.6290 C.2       1 <0>         0.1220
     20 N4          5.7984   -2.6920    1.1360 N.2       1 <0>        -0.2361
     21 N5          6.0724   -3.8813    0.7284 N.2       1 <0>        -0.2824
     22 C14         7.1295   -3.8429   -0.0663 C.2       1 <0>         0.1987
     23 N6          7.5188   -2.5283   -0.1471 N.pl3     1 <0>        -0.3806
     24 C15         8.5953   -2.1714   -0.9045 C.2       1 <0>         0.0596
     25 C16         9.2935   -3.1043   -1.5854 C.2       1 <0>        -0.1286
     26 C17         8.9197   -4.4576   -1.5226 C.2       1 <0>        -0.0839
     27 C18         7.8481   -4.8277   -0.7711 C.2       1 <0>        -0.0784
     28 C19        -0.0021    1.7659    0.9208 C.3       1 <0>        -0.0362
     29 H3         -2.2012    0.1453    0.9146 H         1 <0>         0.0588
     30 H4         -1.4193   -1.3162    1.5636 H         1 <0>         0.0603
     31 H5         -1.4988    0.1634    2.5500 H         1 <0>         0.0583
     32 H6          1.0857    0.2640    2.7895 H         1 <0>         0.0702
     33 H7          0.9695   -1.3382    2.0260 H         1 <0>         0.0761
     34 H8          3.2511   -0.2712    1.8204 H         1 <0>         0.0783
     35 H9          2.5005   -0.6693    0.2552 H         1 <0>         0.0803
     36 H10         6.8042    4.1524   -0.5127 H         1 <0>         0.2036
     37 H11         4.5304   -0.4082    0.9084 H         1 <0>         0.4234
     38 H12         8.2050   -0.4419    2.3563 H         1 <0>         0.0707
     39 H13         7.1958    1.0219    2.4406 H         1 <0>         0.0777
     40 H14         6.5520   -0.5370    3.0095 H         1 <0>         0.0706
     41 H15         8.8912   -1.1342   -0.9602 H         1 <0>         0.1723
     42 H16        10.1444   -2.8092   -2.1816 H         1 <0>         0.1604
     43 H17         9.4814   -5.2010   -2.0688 H         1 <0>         0.1521
     44 H18         7.5516   -5.8647   -0.7158 H         1 <0>         0.1608
     45 H19        -0.6579    2.1334    0.1314 H         1 <0>         0.0854
     46 H20        -0.3228    2.1655    1.8829 H         1 <0>         0.0884
@<TRIPOS>BOND
     1    1    2 1
     2    1   29 1
     3    1   30 1
     4    1   31 1
     5    2    3 1
     6    2   28 1
     7    2    4 1
     8    4    5 1
     9    4   32 1
    10    4   33 1
    11    5    6 1
    12    5   34 1
    13    5   35 1
    14    6   10 1
    15    6    7 2
    16    7    8 1
    17    7   28 1
    18    8    9 1
    19    9   14 ar
    20    9   10 ar
    21   10   11 ar
    22   11   12 ar
    23   11   15 1
    24   12   13 ar
    25   13   14 ar
    26   13   36 1
    27   15   16 1
    28   15   37 1
    29   16   17 1
    30   16   18 1
    31   16   19 1
    32   18   38 1
    33   18   39 1
    34   18   40 1
    35   19   23 1
    36   19   20 2
    37   20   21 1
    38   21   22 2
    39   22   27 1
    40   22   23 1
    41   23   24 1
    42   24   25 2
    43   24   41 1
    44   25   26 1
    45   25   42 1
    46   26   27 2
    47   26   43 1
    48   27   44 1
    49   28   45 1
    50   28   46 1
@<TRIPOS>MOLECULE
ZINC04038543
   40    44     0     0     0
SMALL
USER_CHARGES

@<TRIPOS>ATOM
      1 C1         -0.0167    1.3790    0.0096 C.ar      1 <0>        -0.1085
      2 C2          1.1687    2.0917    0.0021 C.ar      1 <0>        -0.1221
      3 C3          2.3774    1.4255   -0.0135 C.ar      1 <0>        -0.0898
      4 C4          2.4021    0.0326   -0.0212 C.ar      1 <0>        -0.0220
      5 C5          1.2052   -0.6803   -0.0131 C.ar      1 <0>        -0.0923
      6 C6          0.0021   -0.0041    0.0020 C.ar      1 <0>        -0.1198
      7 C7          3.6990   -0.6893   -0.0385 C.2       1 <0>         0.1174
      8 C8          3.8622   -2.0839   -0.0533 C.2       1 <0>        -0.1805
      9 C9          5.2147   -2.3445   -0.0674 C.2       1 <0>         0.1410
     10 N1          5.8604   -1.1408   -0.0613 N.pl3     1 <0>        -0.4521
     11 H1          6.8214   -1.0091   -0.0687 H         1 <0>         0.4444
     12 N2          4.8910   -0.1305   -0.0482 N.2       1 <0>        -0.2512
     13 C10         5.8473   -3.6744   -0.0851 C.2       1 <0>         0.3051
     14 N3          5.2604   -4.8275    0.1782 N.2       1 <0>        -0.2439
     15 N4          6.1087   -5.7951    0.0653 N.2       1 <0>        -0.2194
     16 C11         7.2659   -5.3224   -0.2729 C.2       1 <0>         0.1202
     17 N5          7.1521   -3.9505   -0.3832 N.pl3     1 <0>        -0.3358
     18 N6          8.2195   -3.1268   -0.7226 N.2       1 <0>        -0.2754
     19 C12         9.2969   -3.5361   -1.2881 C.2       1 <0>         0.2310
     20 C13         9.5965   -4.9398   -1.7267 C.3       1 <0>        -0.1394
     21 S1          8.8061   -6.1264   -0.5862 S.3       1 <0>         0.0684
     22 C14        10.3441   -2.5265   -1.5314 C.ar      1 <0>        -0.0771
     23 C15        11.5428   -2.8933   -2.1478 C.ar      1 <0>        -0.0801
     24 C16        12.5177   -1.9437   -2.3722 C.ar      1 <0>        -0.1198
     25 C17        12.3108   -0.6307   -1.9879 C.ar      1 <0>        -0.0838
     26 C18        11.1259   -0.2602   -1.3769 C.ar      1 <0>        -0.1223
     27 C19        10.1396   -1.1978   -1.1518 C.ar      1 <0>        -0.0642
     28 H2         -0.9602    1.9042    0.0260 H         1 <0>         0.1251
     29 H3          1.1484    3.1715    0.0081 H         1 <0>         0.1265
     30 H4          3.3023    1.9830   -0.0200 H         1 <0>         0.1292
     31 H5          1.2187   -1.7602   -0.0194 H         1 <0>         0.1302
     32 H6         -0.9264   -0.5558    0.0083 H         1 <0>         0.1286
     33 H7          3.0709   -2.8189   -0.0531 H         1 <0>         0.1678
     34 H8          9.2153   -5.0927   -2.7363 H         1 <0>         0.1358
     35 H9         10.6749   -5.0985   -1.7206 H         1 <0>         0.1597
     36 H10        11.7059   -3.9179   -2.4476 H         1 <0>         0.1354
     37 H11        13.4450   -2.2258   -2.8486 H         1 <0>         0.1363
     38 H12        13.0779    0.1085   -2.1654 H         1 <0>         0.1329
     39 H13        10.9712    0.7664   -1.0793 H         1 <0>         0.1342
     40 H14         9.2133   -0.9064   -0.6792 H         1 <0>         0.1302
@<TRIPOS>BOND
     1    1    6 ar
     2    1    2 ar
     3    1   28 1
     4    2    3 ar
     5    2   29 1
     6    3    4 ar
     7    3   30 1
     8    4    5 ar
     9    4    7 1
    10    5    6 ar
    11    5   31 1
    12    6   32 1
    13    7   12 2
    14    7    8 1
    15    8    9 2
    16    8   33 1
    17    9   10 1
    18    9   13 1
    19   10   11 1
    20   10   12 1
    21   13   17 1
    22   13   14 2
    23   14   15 1
    24   15   16 2
    25   16   21 1
    26   16   17 1
    27   17   18 1
    28   18   19 2
    29   19   20 1
    30   19   22 1
    31   20   21 1
    32   20   34 1
    33   20   35 1
    34   22   27 ar
    35   22   23 ar
    36   23   24 ar
    37   23   36 1
    38   24   25 ar
    39   24   37 1
    40   25   26 ar
    41   25   38 1
    42   26   27 ar
    43   26   39 1
    44   27   40 1
@<TRIPOS>MOLECULE
ZINC45773868
   52    55     0     0     0
SMALL
USER_CHARGES

@<TRIPOS>ATOM
      1 C1         -0.0184    1.5028    0.0103 C.3       1 <0>        -0.0910
      2 C2          0.0021   -0.0041    0.0020 C.2       1 <0>        -0.0044
      3 C3         -1.0705   -0.8164    0.0025 C.2       1 <0>        -0.0495
      4 N1         -0.6270   -2.0826   -0.0064 N.2       1 <0>        -0.4442
      5 C4          0.6851   -2.0676   -0.0123 C.2       1 <0>         0.2272
      6 O1          1.0981   -0.7883   -0.0131 O.3       1 <0>        -0.1930
      7 C5          1.5619   -3.2577   -0.0227 C.ar      1 <0>        -0.0190
      8 C6          1.0059   -4.5378   -0.0330 C.ar      1 <0>        -0.0700
      9 C7          1.8298   -5.6443   -0.0432 C.ar      1 <0>        -0.1203
     10 C8          3.2044   -5.4871   -0.0433 C.ar      1 <0>        -0.0997
     11 C9          3.7620   -4.2209   -0.0327 C.ar      1 <0>        -0.1207
     12 C10         2.9493   -3.1060   -0.0282 C.ar      1 <0>        -0.0907
     13 C11        -2.5133   -0.3814    0.0119 C.3       1 <0>         0.2080
     14 N2         -2.9857   -0.2331   -1.3613 N.am      1 <0>        -0.5841
     15 C12        -2.8865    0.8901   -2.1064 C.2       1 <0>         0.5264
     16 O2         -2.1428    1.8274   -1.9523 O.2       1 <0>        -0.4524
     17 C13        -3.9614    0.7295   -3.1677 C.3       1 <0>         0.1521
     18 C14        -5.2969    1.1724   -2.5733 C.3       1 <0>        -0.1129
     19 C15        -6.3423    1.4244   -3.6594 C.3       1 <0>        -0.1275
     20 C16        -7.0390    0.1324   -4.1229 C.3       1 <0>        -0.1149
     21 C17        -6.0784   -0.6308   -5.0525 C.3       1 <0>        -0.1345
     22 C18        -5.3918    0.3517   -6.0033 C.3       1 <0>        -0.1198
     23 C19        -3.9121    0.5069   -5.6696 C.3       1 <0>        -0.1185
     24 C20        -3.6498    1.4216   -4.4742 C.3       1 <0>        -0.1125
     25 N3         -3.8969   -0.7399   -3.3144 N.am      1 <0>        -0.7404
     26 C21        -3.5506   -1.2040   -2.0897 C.2       1 <0>         0.7025
     27 O3         -3.7279   -2.3393   -1.7129 O.2       1 <0>        -0.5113
     28 H1          1.0042    1.8801    0.0026 H         1 <0>         0.0784
     29 H2         -0.5455    1.8639   -0.8728 H         1 <0>         0.1176
     30 H3         -0.5286    1.8543    0.9071 H         1 <0>         0.0904
     31 H4         -0.0670   -4.6619   -0.0326 H         1 <0>         0.1388
     32 H5          1.4008   -6.6354   -0.0508 H         1 <0>         0.1331
     33 H6          3.8450   -6.3565   -0.0513 H         1 <0>         0.1294
     34 H7          4.8357   -4.1050   -0.0321 H         1 <0>         0.1314
     35 H8          3.3858   -2.1181   -0.0249 H         1 <0>         0.1296
     36 H9         -3.1156   -1.1316    0.5243 H         1 <0>         0.1166
     37 H10        -2.6018    0.5726    0.5316 H         1 <0>         0.1095
     38 H11        -5.6600    0.4000   -1.8925 H         1 <0>         0.0785
     39 H12        -5.1417    2.0942   -2.0057 H         1 <0>         0.0824
     40 H13        -7.1243    2.0766   -3.2317 H         1 <0>         0.0600
     41 H14        -5.9152    1.9548   -4.4967 H         1 <0>         0.0849
     42 H15        -7.2709   -0.4829   -3.2583 H         1 <0>         0.0641
     43 H16        -7.9446    0.3842   -4.6671 H         1 <0>         0.0655
     44 H17        -5.4242   -1.2566   -4.5007 H         1 <0>         0.0798
     45 H18        -6.7126   -1.2922   -5.6793 H         1 <0>         0.0504
     46 H19        -5.4704   -0.0606   -7.0231 H         1 <0>         0.0583
     47 H20        -5.8968    1.3099   -6.0088 H         1 <0>         0.0772
     48 H21        -3.4597   -0.4705   -5.5047 H         1 <0>         0.0627
     49 H22        -3.4073    0.9424   -6.5483 H         1 <0>         0.0692
     50 H23        -4.2299    2.3399   -4.5755 H         1 <0>         0.0942
     51 H24        -2.5869    1.7108   -4.4867 H         1 <0>         0.0783
     52 H25        -3.9548   -1.2824   -4.1001 H         1 <0>         0.4349
@<TRIPOS>BOND
     1    1    2 1
     2    1   28 1
     3    1   29 1
     4    1   30 1
     5    2    6 1
     6    2    3 2
     7    3    4 1
     8    3   13 1
     9    4    5 2
    10    5    6 1
    11    5    7 1
    12    7   12 ar
    13    7    8 ar
    14    8    9 ar
    15    8   31 1
    16    9   10 ar
    17    9   32 1
    18   10   11 ar
    19   10   33 1
    20   11   12 ar
    21   11   34 1
    22   12   35 1
    23   13   14 1
    24   13   36 1
    25   13   37 1
    26   14   26 am
    27   14   15 am
    28   15   16 2
    29   15   17 1
    30   17   24 1
    31   17   18 1
    32   17   25 1
    33   18   19 1
    34   18   38 1
    35   18   39 1
    36   19   20 1
    37   19   40 1
    38   19   41 1
    39   20   21 1
    40   20   42 1
    41   20   43 1
    42   21   22 1
    43   21   44 1
    44   21   45 1
    45   22   23 1
    46   22   46 1
    47   22   47 1
    48   23   24 1
    49   23   48 1
    50   23   49 1
    51   24   50 1
    52   24   51 1
    53   25   26 am
    54   25   52 1
    55   26   27 2
@<TRIPOS>MOLECULE
ZINC64754066
   50    53     0     0     0
SMALL
USER_CHARGES

@<TRIPOS>ATOM
      1 C1         -0.0077    1.3809    0.0212 C.ar      1 <0>        -0.1498
      2 C2          1.1817    2.0864    0.0233 C.ar      1 <0>        -0.0871
      3 C3          2.3840    1.4098    0.0096 C.ar      1 <0>        -0.1477
      4 C4          2.4044    0.0185   -0.0052 C.ar      1 <0>         0.1284
      5 C5          1.2128   -0.6846   -0.0037 C.ar      1 <0>        -0.1594
      6 C6          0.0088    0.0000    0.0073 C.ar      1 <0>        -0.0839
      7 C7          1.1901   -2.1921   -0.0081 C.3       1 <0>        -0.0695
      8 C8          2.5525   -2.7271   -0.4562 C.3       1 <0>        -0.1384
      9 C9          3.6425   -1.9937    0.3358 C.3       1 <0>         0.0669
     10 O1          3.6076   -0.6118   -0.0237 O.3       1 <0>        -0.3138
     11 C10         2.6341   -4.2291   -0.1764 C.3       1 <0>         0.1451
     12 N1          3.8897   -4.7585   -0.7143 N.am      1 <0>        -0.7477
     13 C11         4.1796   -6.0682   -0.5839 C.2       1 <0>         0.6995
     14 O2          3.4462   -6.7919    0.0616 O.2       1 <0>        -0.5829
     15 N2          5.2826   -6.5758   -1.1690 N.am      1 <0>        -0.6157
     16 C12         6.1886   -5.6430   -1.8390 C.3       1 <0>         0.1164
     17 C13         7.3180   -5.3178   -0.8826 C.3       1 <0>        -0.1568
     18 C14         8.4344   -6.3585   -1.0030 C.3       1 <0>         0.1307
     19 N3          7.9171   -7.7291   -1.1336 N.pl3     1 <0>        -0.5612
     20 C15         6.8174   -8.2448   -0.3372 C.3       1 <0>         0.1070
     21 C16         5.4882   -7.9799   -1.0876 C.3       1 <0>         0.1050
     22 C17         8.5082   -8.5703   -2.0632 C.2       1 <0>         0.3134
     23 N4          9.5103   -8.3144   -2.8771 N.2       1 <0>        -0.5937
     24 C18         9.9622   -9.2334   -3.7122 C.2       1 <0>         0.0794
     25 C19         9.3490  -10.4410   -3.6899 C.2       1 <0>        -0.2751
     26 S1          8.1235  -10.1694   -2.4202 S.3       1 <0>         0.0718
     27 H1         -0.9493    1.9097    0.0348 H         1 <0>         0.1253
     28 H2          1.1695    3.1662    0.0354 H         1 <0>         0.1295
     29 H3          3.3123    1.9617    0.0100 H         1 <0>         0.1305
     30 H4         -0.9215   -0.5486    0.0051 H         1 <0>         0.1256
     31 H5          0.9707   -2.5544    0.9963 H         1 <0>         0.0841
     32 H6          0.4195   -2.5413   -0.6953 H         1 <0>         0.0877
     33 H7          2.6866   -2.5436   -1.5222 H         1 <0>         0.0930
     34 H8          3.4544   -2.1000    1.4042 H         1 <0>         0.0693
     35 H9          4.6187   -2.4122    0.0910 H         1 <0>         0.1044
     36 H10         2.5987   -4.4007    0.8994 H         1 <0>         0.0744
     37 H11         1.7934   -4.7336   -0.6527 H         1 <0>         0.0754
     38 H12         4.5124   -4.1664   -1.1644 H         1 <0>         0.3967
     39 H13         6.5910   -6.1041   -2.7410 H         1 <0>         0.0837
     40 H14         5.6518   -4.7306   -2.0990 H         1 <0>         0.0809
     41 H15         7.7176   -4.3314   -1.1184 H         1 <0>         0.0935
     42 H16         6.9364   -5.3147    0.1384 H         1 <0>         0.0747
     43 H17         9.0403   -6.1256   -1.8786 H         1 <0>         0.0951
     44 H18         9.0651   -6.3030   -0.1157 H         1 <0>         0.0654
     45 H19         6.9460   -9.3167   -0.1874 H         1 <0>         0.0894
     46 H20         6.7967   -7.7389    0.6281 H         1 <0>         0.0943
     47 H21         4.6640   -8.4398   -0.5425 H         1 <0>         0.1171
     48 H22         5.5472   -8.4003   -2.0915 H         1 <0>         0.0684
     49 H23        10.7838   -9.0305   -4.3832 H         1 <0>         0.1693
     50 H24         9.5488  -11.3258   -4.2761 H         1 <0>         0.1916
@<TRIPOS>BOND
     1    1    6 ar
     2    1    2 ar
     3    1   27 1
     4    2    3 ar
     5    2   28 1
     6    3    4 ar
     7    3   29 1
     8    4   10 1
     9    4    5 ar
    10    5    6 ar
    11    5    7 1
    12    6   30 1
    13    7    8 1
    14    7   31 1
    15    7   32 1
    16    8    9 1
    17    8   11 1
    18    8   33 1
    19    9   10 1
    20    9   34 1
    21    9   35 1
    22   11   12 1
    23   11   36 1
    24   11   37 1
    25   12   13 am
    26   12   38 1
    27   13   14 2
    28   13   15 am
    29   15   21 1
    30   15   16 1
    31   16   17 1
    32   16   39 1
    33   16   40 1
    34   17   18 1
    35   17   41 1
    36   17   42 1
    37   18   19 1
    38   18   43 1
    39   18   44 1
    40   19   20 1
    41   19   22 1
    42   20   21 1
    43   20   45 1
    44   20   46 1
    45   21   47 1
    46   21   48 1
    47   22   26 1
    48   22   23 2
    49   23   24 1
    50   24   25 2
    51   24   49 1
    52   25   26 1
    53   25   50 1
@<TRIPOS>MOLECULE
ZINC13046025
   59    61     0     0     0
SMALL
USER_CHARGES
2-[(1R)-2-[[(1R,2R,3R)-2,3-dimethylcyclohexyl]amino]-1-methyl-2-oxo-ethyl]sulfanyl-3-(2-hydroxyethyl)-4-oxo-quinazoline-7-carboxylic acid
@<TRIPOS>ATOM
      1 C1         -4.6976   -0.0878    1.4609 C.3       1 <0>        -0.1570
      2 C2         -4.8680    1.1929    0.6413 C.3       1 <0>        -0.0817
      3 H1         -5.6547    1.8048    1.0826 H         1 <0>         0.0745
      4 C3         -5.2486    0.8317   -0.7959 C.3       1 <0>        -0.1174
      5 C4         -4.1444   -0.0272   -1.4155 C.3       1 <0>        -0.1181
      6 C5         -2.8299    0.7557   -1.4175 C.3       1 <0>        -0.1306
      7 C6         -2.4492    1.1169    0.0197 C.3       1 <0>         0.1498
      8 H2         -2.3279    0.2045    0.6037 H         1 <0>         0.0937
      9 C7         -3.5535    1.9758    0.6393 C.3       1 <0>        -0.0941
     10 H3         -3.6749    2.8882    0.0554 H         1 <0>         0.0766
     11 C8         -3.1728    2.3370    2.0765 C.3       1 <0>        -0.1518
     12 N1         -1.1906    1.8666    0.0178 N.am      1 <0>        -0.7171
     13 C9         -0.0144    1.2086    0.0087 C.2       1 <0>         0.5392
     14 O1          0.0021   -0.0041    0.0020 O.2       1 <0>        -0.5267
     15 C10         1.2803    1.9798    0.0005 C.3       1 <0>        -0.1056
     16 H4          1.1561    2.8921   -0.5829 H         1 <0>         0.1272
     17 C11         1.6679    2.3411    1.4358 C.3       1 <0>        -0.1454
     18 S1          2.5831    0.9637   -0.7387 S.3       1 <0>         0.0399
     19 C12         3.9047    2.1289   -0.7605 C.2       1 <0>         0.3401
     20 N2          3.6821    3.3344   -0.2981 N.2       1 <0>        -0.5111
     21 C13         4.6535    4.2773   -0.2806 C.ar      1 <0>         0.1349
     22 C14         4.4156    5.5611    0.2185 C.ar      1 <0>        -0.0734
     23 C15         5.4416    6.4976    0.2105 C.ar      1 <0>        -0.0690
     24 C16         6.7058    6.1625   -0.2916 C.ar      1 <0>        -0.0873
     25 C17         6.9500    4.9115   -0.7808 C.ar      1 <0>        -0.0634
     26 C18         5.9346    3.9558   -0.7829 C.ar      1 <0>        -0.1920
     27 C19         6.1546    2.5960   -1.3010 C.2       1 <0>         0.5602
     28 O2          7.2356    2.2581   -1.7464 O.2       1 <0>        -0.4973
     29 N3          5.1115    1.7352   -1.2637 N.am      1 <0>        -0.5260
     30 C20         5.2780    0.3697   -1.7677 C.3       1 <0>         0.0917
     31 C21         4.9302    0.3299   -3.2571 C.3       1 <0>         0.0595
     32 O3          5.8710    1.1197   -3.9872 O.3       1 <0>        -0.5558
     33 C22         5.1976    7.8588    0.7366 C.2       1 <0>         0.4885
     34 O4          4.1034    8.1540    1.1729 O.co2     1 <0>        -0.6227
     35 H5         -4.4264    0.1695    2.4848 H         1 <0>         0.0584
     36 H6         -5.6341   -0.6456    1.4623 H         1 <0>         0.0541
     37 H7         -3.9109   -0.6997    1.0195 H         1 <0>         0.0616
     38 H8         -6.1851    0.2739   -0.7945 H         1 <0>         0.0636
     39 H9         -5.3700    1.7440   -1.3799 H         1 <0>         0.0629
     40 H10        -4.0230   -0.9396   -0.8316 H         1 <0>         0.0673
     41 H11        -4.4156   -0.2845   -2.4394 H         1 <0>         0.0638
     42 H12        -2.9513    1.6681   -2.0014 H         1 <0>         0.0645
     43 H13        -2.0432    0.1438   -1.8588 H         1 <0>         0.0682
     44 H14        -2.2364    2.8947    2.0751 H         1 <0>         0.0577
     45 H15        -3.9595    2.9489    2.5179 H         1 <0>         0.0578
     46 H16        -3.0515    1.4246    2.6604 H         1 <0>         0.0596
     47 H17        -1.2037    2.8365    0.0232 H         1 <0>         0.4040
     48 H18         2.6043    2.8989    1.4299 H         1 <0>         0.0991
     49 H19         0.8833    2.9530    1.8809 H         1 <0>         0.0705
     50 H20         1.7921    1.4288    2.0192 H         1 <0>         0.0660
     51 H21         3.4422    5.8229    0.6064 H         1 <0>         0.1433
     52 H22         7.4945    6.9004   -0.2914 H         1 <0>         0.1422
     53 H23         7.9281    4.6623   -1.1651 H         1 <0>         0.1330
     54 H24         6.3118    0.0542   -1.6274 H         1 <0>         0.1097
     55 H25         4.6158   -0.3023   -1.2218 H         1 <0>         0.1081
     56 H26         4.9679   -0.7002   -3.6116 H         1 <0>         0.0650
     57 H27         3.9270    0.7291   -3.4067 H         1 <0>         0.0543
     58 H28         5.7113    1.1400   -4.9407 H         1 <0>         0.3775
     59 O5          6.1890    8.7704    0.7316 O.co2     1 <0>        -0.7444
@<TRIPOS>BOND
     1    1    2 1
     2    1   35 1
     3    1   36 1
     4    1   37 1
     5    2    3 1
     6    2    9 1
     7    2    4 1
     8    4    5 1
     9    4   38 1
    10    4   39 1
    11    5    6 1
    12    5   40 1
    13    5   41 1
    14    6    7 1
    15    6   42 1
    16    6   43 1
    17    7    8 1
    18    7    9 1
    19    7   12 1
    20    9   10 1
    21    9   11 1
    22   11   44 1
    23   11   45 1
    24   11   46 1
    25   12   13 am
    26   12   47 1
    27   13   14 2
    28   13   15 1
    29   15   16 1
    30   15   17 1
    31   15   18 1
    32   17   48 1
    33   17   49 1
    34   17   50 1
    35   18   19 1
    36   19   29 1
    37   19   20 2
    38   20   21 1
    39   21   26 ar
    40   21   22 ar
    41   22   23 ar
    42   22   51 1
    43   23   24 ar
    44   23   33 1
    45   24   25 ar
    46   24   52 1
    47   25   26 ar
    48   25   53 1
    49   26   27 1
    50   27   28 2
    51   27   29 am
    52   29   30 1
    53   30   31 1
    54   30   54 1
    55   30   55 1
    56   31   32 1
    57   31   56 1
    58   31   57 1
    59   32   58 1
    60   33   34 2
    61   33   59 1
@<TRIPOS>MOLECULE
ZINC27532037
   34    35     0     0     0
SMALL
USER_CHARGES
methyl (4S)-6-amino-5-cyano-4-(3,5-dibromo-4-hydroxy-phenyl)-2-methyl-4H-pyran-3-carboxylate
@<TRIPOS>ATOM
      1 C1         -5.0986    3.1085    2.5010 C.3       1 <0>        -0.2194
      2 C2         -4.3643    3.4495    1.2300 C.2       1 <0>         0.1913
      3 C3         -3.3330    4.3015    1.2881 C.2       1 <0>        -0.2456
      4 C4         -2.5654    4.6782    0.0502 C.3       1 <0>         0.1163
      5 H1         -2.3855    5.7634    0.0515 H         1 <0>         0.0887
      6 C5         -3.3595    4.3080   -1.1735 C.2       1 <0>        -0.2578
      7 C6         -4.4021    3.4470   -1.0880 C.2       1 <0>         0.4150
      8 O1         -4.7669    2.8898    0.0799 O.3       1 <0>        -0.2355
      9 N1         -5.1049    3.1348   -2.2251 N.pl3     1 <0>        -0.8603
     10 C7         -3.0095    4.8724   -2.4422 C.1       1 <0>         0.2857
     11 N2         -2.7318    5.3201   -3.4486 N.1       1 <0>        -0.4581
     12 C8         -1.2491    3.9446    0.0342 C.ar      1 <0>        -0.2190
     13 C9         -0.0632    4.6554    0.0267 C.ar      1 <0>        -0.0053
     14 C10         1.1458    3.9851    0.0120 C.ar      1 <0>        -0.2215
     15 C11         1.1683    2.5975    0.0049 C.ar      1 <0>         0.3095
     16 C12        -0.0236    1.8867    0.0124 C.ar      1 <0>        -0.2214
     17 C13        -1.2296    2.5622    0.0218 C.ar      1 <0>        -0.0079
     18 Br1         0.0021   -0.0041    0.0020 Br        1 <0>        -0.0943
     19 O2          2.3557    1.9359   -0.0100 O.3       1 <0>        -0.6694
     20 Br2         2.7672    4.9581    0.0012 Br        1 <0>        -0.0928
     21 C14        -2.9582    4.8571    2.5359 C.2       1 <0>         0.5415
     22 O3         -3.5720    4.5594    3.5433 O.2       1 <0>        -0.5089
     23 O4         -1.9205    5.7164    2.6074 O.3       1 <0>        -0.3258
     24 C15        -1.5979    6.2381    3.8980 C.3       1 <0>         0.0304
     25 H2         -4.6432    3.6491    3.3438 H         1 <0>         0.2031
     26 H3         -5.0342    2.0255    2.6823 H         1 <0>         0.0815
     27 H4         -6.1543    3.4020    2.4045 H         1 <0>         0.0768
     28 H5         -5.9540    2.4375   -2.1728 H         1 <0>         0.4275
     29 H6         -4.8190    3.5820   -3.1886 H         1 <0>         0.4468
     30 H7         -0.0813    5.7352    0.0327 H         1 <0>         0.1064
     31 H8         -2.1575    2.0096    0.0235 H         1 <0>         0.0965
     32 H9         -0.7392    6.9204    3.8135 H         1 <0>         0.1034
     33 H10        -1.3427    5.4096    4.5751 H         1 <0>         0.0631
     34 H11        -2.4635    6.7859    4.2988 H         1 <0>         0.0593
@<TRIPOS>BOND
     1    1    2 1
     2    1   25 1
     3    1   26 1
     4    1   27 1
     5    2    8 1
     6    2    3 2
     7    3    4 1
     8    3   21 1
     9    4    5 1
    10    4    6 1
    11    4   12 1
    12    6    7 2
    13    6   10 1
    14    7    8 1
    15    7    9 1
    16    9   28 1
    17    9   29 1
    18   10   11 3
    19   12   17 ar
    20   12   13 ar
    21   13   14 ar
    22   13   30 1
    23   14   15 ar
    24   14   20 1
    25   15   16 ar
    26   15   19 1
    27   16   17 ar
    28   16   18 1
    29   17   31 1
    30   21   22 2
    31   21   23 1
    32   23   24 1
    33   24   32 1
    34   24   33 1
    35   24   34 1
@<TRIPOS>MOLECULE
ZINC38740464
   45    49     0     0     0
SMALL
USER_CHARGES

@<TRIPOS>ATOM
      1 C1         -0.0184    1.5028    0.0103 C.3       1 <0>        -0.0925
      2 C2          0.0021   -0.0041    0.0020 C.ar      1 <0>         0.1877
      3 C3          0.0059   -0.6966   -1.1946 C.ar      1 <0>        -0.3368
      4 C4          0.0250   -2.0901   -1.1561 C.ar      1 <0>         0.4643
      5 O1          0.0298   -2.8094   -2.3046 O.3       1 <0>        -0.6930
      6 N1          0.0387   -2.7022    0.0218 N.ar      1 <0>        -0.6427
      7 C5          0.0345   -2.0034    1.1456 C.ar      1 <0>         0.5752
      8 N2          0.0221   -0.6797    1.1407 N.ar      1 <0>        -0.5845
      9 N3          0.0488   -2.6775    2.3642 N.pl3     1 <0>        -0.3075
     10 C6          0.0729   -4.0310    2.5313 C.2       1 <0>         0.3498
     11 C7          0.0801   -4.2820    3.8657 C.2       1 <0>        -0.2703
     12 C8          0.0597   -3.0425    4.5378 C.2       1 <0>         0.1509
     13 N4          0.0471   -2.0845    3.6331 N.2       1 <0>        -0.2271
     14 C9          0.0586   -2.8509    6.0039 C.2       1 <0>        -0.0612
     15 C10         0.0339   -1.6852    6.7215 C.2       1 <0>        -0.1391
     16 C11         0.0385   -1.7544    8.0978 C.2       1 <0>        -0.1525
     17 C12         0.0672   -2.9714    8.6987 C.2       1 <0>        -0.1881
     18 S1          0.0811   -4.0795    7.2991 S.3       1 <0>         0.0859
     19 N5          0.0869   -4.9844    1.5157 N.am      1 <0>        -0.6345
     20 C13         0.1107   -6.2963    1.8232 C.2       1 <0>         0.5968
     21 O2          0.1199   -6.6481    2.9880 O.2       1 <0>        -0.5210
     22 C14         0.1254   -7.3015    0.7523 C.2       1 <0>        -0.2335
     23 C15         0.1236   -7.0637   -0.5907 C.2       1 <0>         0.1308
     24 N6          0.1402   -8.2391   -1.2643 N.pl3     1 <0>        -0.5755
     25 H1          0.1427   -8.3232   -2.2306 H         1 <0>         0.4224
     26 C16         0.1536   -9.2997   -0.3819 C.ar      1 <0>         0.0826
     27 C17         0.1514   -8.7665    0.9172 C.ar      1 <0>        -0.0560
     28 C18         0.1692   -9.6156    2.0206 C.ar      1 <0>        -0.0637
     29 C19         0.1925  -10.9803    1.8308 C.ar      1 <0>        -0.1427
     30 C20         0.1983  -11.5085    0.5482 C.ar      1 <0>        -0.1036
     31 C21         0.1720  -10.6798   -0.5526 C.ar      1 <0>        -0.1264
     32 H2          1.0042    1.8801    0.0026 H         1 <0>         0.0719
     33 H3         -0.5455    1.8639   -0.8728 H         1 <0>         0.0698
     34 H4         -0.5286    1.8543    0.9071 H         1 <0>         0.0716
     35 H5         -0.0060   -0.1702   -2.1376 H         1 <0>         0.1223
     36 H6          0.0976   -5.2572    4.3297 H         1 <0>         0.1832
     37 H7          0.0117   -0.7297    6.2186 H         1 <0>         0.1403
     38 H8          0.0199   -0.8520    8.6908 H         1 <0>         0.1335
     39 H9          0.0753   -3.2083    9.7524 H         1 <0>         0.1853
     40 H10         0.0795   -4.7039    0.5871 H         1 <0>         0.4335
     41 H11         0.1106   -6.0856   -1.0484 H         1 <0>         0.1906
     42 H12         0.1650   -9.2067    3.0202 H         1 <0>         0.1347
     43 H13         0.2066  -11.6415    2.6845 H         1 <0>         0.1239
     44 H14         0.2166  -12.5796    0.4110 H         1 <0>         0.1246
     45 H15         0.1787  -11.1015   -1.5469 H         1 <0>         0.1205
@<TRIPOS>BOND
     1    1    2 1
     2    1   32 1
     3    1   33 1
     4    1   34 1
     5    2    8 ar
     6    2    3 ar
     7    3    4 ar
     8    3   35 1
     9    4    5 1
    10    4    6 ar
    11    6    7 ar
    12    7    8 ar
    13    7    9 1
    14    9   13 1
    15    9   10 1
    16   10   11 2
    17   10   19 1
    18   11   12 1
    19   11   36 1
    20   12   13 2
    21   12   14 1
    22   14   18 1
    23   14   15 2
    24   15   16 1
    25   15   37 1
    26   16   17 2
    27   16   38 1
    28   17   18 1
    29   17   39 1
    30   19   20 am
    31   19   40 1
    32   20   21 2
    33   20   22 1
    34   22   27 1
    35   22   23 2
    36   23   24 1
    37   23   41 1
    38   24   25 1
    39   24   26 1
    40   26   31 ar
    41   26   27 ar
    42   27   28 ar
    43   28   29 ar
    44   28   42 1
    45   29   30 ar
    46   29   43 1
    47   30   31 ar
    48   30   44 1
    49   31   45 1
@<TRIPOS>MOLECULE
ZINC33371580
   40    43     0     0     0
SMALL
USER_CHARGES

@<TRIPOS>ATOM
      1 C1         -0.0167    1.3781    0.0096 C.ar      1 <0>        -0.1338
      2 C2          1.1709    2.0855    0.0021 C.ar      1 <0>        -0.1156
      3 C3          2.3773    1.4107   -0.0130 C.ar      1 <0>        -0.1256
      4 C4          2.3960    0.0285   -0.0201 C.ar      1 <0>        -0.0642
      5 C5          1.2084   -0.6789   -0.0117 C.ar      1 <0>        -0.1024
      6 C6          0.0021   -0.0041    0.0020 C.ar      1 <0>        -0.1170
      7 C7          3.7112   -0.7071   -0.0376 C.3       1 <0>         0.0763
      8 C8          3.5816   -2.0210   -0.8359 C.3       1 <0>        -0.1020
      9 H1          2.5704   -2.4273   -0.8141 H         1 <0>         0.1330
     10 C9          4.0569   -1.6642   -2.2700 C.3       1 <0>        -0.1219
     11 H2          3.3090   -1.8860   -3.0312 H         1 <0>         0.1320
     12 C10         4.4137   -0.1644   -2.2069 C.3       1 <0>         0.1089
     13 H3          3.5679    0.4411   -2.5325 H         1 <0>         0.0876
     14 N1          4.7349    0.0803   -0.7708 N.3       1 <0>        -0.6147
     15 C11         5.6231    0.1238   -3.0585 C.ar      1 <0>        -0.0391
     16 C12         6.8818    0.1432   -2.4873 C.ar      1 <0>        -0.0605
     17 C13         7.9924    0.4081   -3.2684 C.ar      1 <0>        -0.0204
     18 C14         7.8440    0.6534   -4.6219 C.ar      1 <0>        -0.0928
     19 C15         6.5851    0.6337   -5.1940 C.ar      1 <0>        -0.0205
     20 C16         5.4742    0.3633   -4.4125 C.ar      1 <0>        -0.0089
     21 Cl1         3.8941    0.3319   -5.1310 Cl        1 <0>        -0.0450
     22 Cl2         6.3981    0.9420   -6.8921 Cl        1 <0>        -0.0470
     23 Cl3         9.5726    0.4334   -2.5499 Cl        1 <0>        -0.0530
     24 C17         5.3172   -2.4836   -2.4344 C.2       1 <0>         0.5467
     25 O1          6.0169   -2.5019   -3.4241 O.2       1 <0>        -0.4870
     26 N2          5.5399   -3.1847   -1.3166 N.am      1 <0>        -0.6799
     27 C18         4.6170   -3.0068   -0.3432 C.2       1 <0>         0.5368
     28 O2          4.6136   -3.5413    0.7449 O.2       1 <0>        -0.4249
     29 C19         4.1731   -0.9881    1.3691 C.2       1 <0>         0.5180
     30 O3          3.4882   -1.6719    2.1105 O.co2     1 <0>        -0.6605
     31 O4          5.2318   -0.5316    1.7657 O.co2     1 <0>        -0.6669
     32 H4         -0.9591    1.9053    0.0259 H         1 <0>         0.1159
     33 H5          1.1563    3.1654    0.0076 H         1 <0>         0.1178
     34 H6          3.3051    1.9634   -0.0196 H         1 <0>         0.1178
     35 H7          1.2231   -1.7588   -0.0176 H         1 <0>         0.1238
     36 H8         -0.9258   -0.5567    0.0082 H         1 <0>         0.1185
     37 H9          6.9981   -0.0482   -1.4308 H         1 <0>         0.1659
     38 H10         8.7111    0.8606   -5.2315 H         1 <0>         0.1478
     39 H11         4.6617    1.0623   -0.5508 H         1 <0>         0.3469
     40 H12         6.3001   -3.7781   -1.2124 H         1 <0>         0.4098
@<TRIPOS>BOND
     1    1    6 ar
     2    1    2 ar
     3    1   32 1
     4    2    3 ar
     5    2   33 1
     6    3    4 ar
     7    3   34 1
     8    4    5 ar
     9    4    7 1
    10    5    6 ar
    11    5   35 1
    12    6   36 1
    13    7   14 1
    14    7    8 1
    15    7   29 1
    16    8    9 1
    17    8   27 1
    18    8   10 1
    19   10   11 1
    20   10   12 1
    21   10   24 1
    22   12   13 1
    23   12   14 1
    24   12   15 1
    25   14   39 1
    26   15   20 ar
    27   15   16 ar
    28   16   17 ar
    29   16   37 1
    30   17   18 ar
    31   17   23 1
    32   18   19 ar
    33   18   38 1
    34   19   20 ar
    35   19   22 1
    36   20   21 1
    37   24   25 2
    38   24   26 am
    39   26   27 am
    40   26   40 1
    41   27   28 2
    42   29   30 2
    43   29   31 1
@<TRIPOS>MOLECULE
ZINC59250035
   48    50     0     0     0
SMALL
USER_CHARGES

@<TRIPOS>ATOM
      1 C1          3.0500   -0.7531    1.6813 C.3       1 <0>        -0.1533
      2 C2          1.9731    0.3046    1.4312 C.3       1 <0>         0.0093
      3 H1          1.8994    0.9603    2.2988 H         1 <0>         0.0704
      4 C3          2.3402    1.1179    0.2167 C.2       1 <0>         0.5049
      5 O1          1.6412    1.0728   -0.7812 O.co2     1 <0>        -0.6696
      6 O2          3.3362    1.8209    0.2322 O.co2     1 <0>        -0.6826
      7 O3          0.7159   -0.3382    1.2117 O.3       1 <0>        -0.2712
      8 C4         -0.0025   -0.6793    2.3123 C.ar      1 <0>         0.1761
      9 C5          0.4738   -0.3556    3.5776 C.ar      1 <0>        -0.2244
     10 C6         -0.2500   -0.6988    4.6970 C.ar      1 <0>        -0.0524
     11 C7         -1.4692   -1.3757    4.5593 C.ar      1 <0>        -0.1538
     12 C8         -1.9440   -1.6992    3.2813 C.ar      1 <0>        -0.0376
     13 C9         -1.2141   -1.3458    2.1690 C.ar      1 <0>        -0.1661
     14 C10        -2.2448   -1.7445    5.7479 C.2       1 <0>         0.0607
     15 C11        -1.6030   -2.1463    6.8845 C.2       1 <0>        -0.0411
     16 C12        -2.3570   -2.4483    8.0638 C.1       1 <0>         0.2561
     17 N1         -2.9551   -2.6880    8.9994 N.1       1 <0>        -0.4096
     18 C13        -0.1380   -2.2687    6.8972 C.2       1 <0>         0.1158
     19 N2          0.5368   -3.2034    6.3163 N.2       1 <0>        -0.1709
     20 N3          1.9163   -3.0929    6.4785 N.pl3     1 <0>        -0.4918
     21 C14         2.2064   -1.9019    7.2924 C.3       1 <0>         0.2917
     22 H2          2.7113   -2.1828    8.2167 H         1 <0>         0.1172
     23 C15         0.8116   -1.3156    7.5873 C.3       1 <0>         0.0052
     24 H3          0.7195   -0.3138    7.1679 H         1 <0>         0.1577
     25 C16         0.5591   -1.2950    9.0373 C.1       1 <0>         0.2115
     26 N4          0.3643   -1.2790   10.1564 N.1       1 <0>        -0.3935
     27 N5          3.0186   -0.9421    6.5328 N.3       1 <0>        -0.8265
     28 C17         2.8672   -3.9686    5.9547 C.ar      1 <0>         0.2227
     29 C18         4.2196   -3.7525    6.1932 C.ar      1 <0>        -0.1834
     30 C19         5.1580   -4.6215    5.6730 C.ar      1 <0>        -0.0764
     31 C20         4.7539   -5.7059    4.9154 C.ar      1 <0>        -0.1579
     32 C21         3.4093   -5.9241    4.6759 C.ar      1 <0>        -0.0797
     33 C22         2.4647   -5.0627    5.1976 C.ar      1 <0>        -0.1525
     34 H4          3.1237   -1.4087    0.8136 H         1 <0>         0.0605
     35 H5          4.0089   -0.2627    1.8487 H         1 <0>         0.0751
     36 H6          2.7844   -1.3413    2.5596 H         1 <0>         0.0451
     37 H7          1.4137    0.1658    3.6825 H         1 <0>         0.1337
     38 H8          0.1211   -0.4471    5.6795 H         1 <0>         0.1204
     39 H9         -2.8830   -2.2209    3.1689 H         1 <0>         0.1331
     40 H10        -1.5811   -1.5907    1.1833 H         1 <0>         0.1357
     41 H11        -3.3235   -1.6984    5.7245 H         1 <0>         0.1480
     42 H12         3.9067   -1.3451    6.2741 H         1 <0>         0.3600
     43 H13         2.5211   -0.6112    5.7197 H         1 <0>         0.3541
     44 H14         4.5358   -2.9059    6.7844 H         1 <0>         0.1227
     45 H15         6.2088   -4.4542    5.8575 H         1 <0>         0.1269
     46 H16         5.4903   -6.3837    4.5095 H         1 <0>         0.1221
     47 H17         3.0976   -6.7719    4.0839 H         1 <0>         0.1254
     48 H18         1.4147   -5.2365    5.0143 H         1 <0>         0.1322
@<TRIPOS>BOND
     1    1    2 1
     2    1   34 1
     3    1   35 1
     4    1   36 1
     5    2    3 1
     6    2    4 1
     7    2    7 1
     8    4    5 2
     9    4    6 1
    10    7    8 1
    11    8   13 ar
    12    8    9 ar
    13    9   10 ar
    14    9   37 1
    15   10   11 ar
    16   10   38 1
    17   11   12 ar
    18   11   14 1
    19   12   13 ar
    20   12   39 1
    21   13   40 1
    22   14   15 2
    23   14   41 1
    24   15   16 1
    25   15   18 1
    26   16   17 3
    27   18   23 1
    28   18   19 2
    29   19   20 1
    30   20   21 1
    31   20   28 1
    32   21   22 1
    33   21   23 1
    34   21   27 1
    35   23   24 1
    36   23   25 1
    37   25   26 3
    38   27   42 1
    39   27   43 1
    40   28   33 ar
    41   28   29 ar
    42   29   30 ar
    43   29   44 1
    44   30   31 ar
    45   30   45 1
    46   31   32 ar
    47   31   46 1
    48   32   33 ar
    49   32   47 1
    50   33   48 1
@<TRIPOS>MOLECULE
ZINC01386201
   29    31     0     0     0
SMALL
USER_CHARGES
methyl-(trifluoromethyl)BLAH
@<TRIPOS>ATOM
      1 C1          0.3712    7.5132    0.3255 C.3       1 <0>        -0.1115
      2 C2          0.6434    6.0476    0.5467 C.2       1 <0>         0.2604
      3 N1         -0.1068    5.2138   -0.0640 N.2       1 <0>        -0.4671
      4 C3         -0.0504    3.8552   -0.0010 C.ar      1 <0>         0.0667
      5 C4         -1.2460    3.1289    0.0186 C.ar      1 <0>        -0.0807
      6 C5         -1.2201    1.7495    0.0174 C.ar      1 <0>        -0.1071
      7 C6         -0.0126    1.0758    0.0080 C.ar      1 <0>        -0.1008
      8 C7          1.1772    1.7827    0.0004 C.ar      1 <0>        -0.1094
      9 C8          1.1662    3.1671    0.0082 C.ar      1 <0>         0.0543
     10 O1          2.3462    3.8384    0.0627 O.3       1 <0>        -0.2526
     11 C9          2.5811    4.6114    1.1509 C.ar      1 <0>         0.0701
     12 C10         1.7499    5.6961    1.4474 C.ar      1 <0>         0.1065
     13 N2          1.9623    6.4176    2.5458 N.ar      1 <0>        -0.4302
     14 C11         2.9562    6.1541    3.3668 C.ar      1 <0>         0.1517
     15 C12         3.8298    5.1092    3.1206 C.ar      1 <0>        -0.2092
     16 C13         3.6444    4.3198    1.9942 C.ar      1 <0>        -0.0320
     17 C14         4.9706    4.8318    4.0654 C.3       1 <0>         0.5190
     18 F1          6.0970    5.5570    3.6621 F         1 <0>        -0.1678
     19 F2          4.6075    5.2164    5.3606 F         1 <0>        -0.1681
     20 F3          5.2665    3.4645    4.0506 F         1 <0>        -0.1709
     21 H1         -0.4696    7.6273   -0.3586 H         1 <0>         0.0884
     22 H2          0.1315    7.9860    1.2779 H         1 <0>         0.0974
     23 H3          1.2549    7.9863   -0.1028 H         1 <0>         0.0854
     24 H4         -2.1921    3.6496    0.0302 H         1 <0>         0.1405
     25 H5         -2.1461    1.1940    0.0279 H         1 <0>         0.1389
     26 H6          0.0021   -0.0041    0.0020 H         1 <0>         0.1393
     27 H7          2.1179    1.2523   -0.0120 H         1 <0>         0.1392
     28 H8          3.0928    6.7638    4.2477 H         1 <0>         0.1839
     29 H9          4.3114    3.4981    1.7792 H         1 <0>         0.1656
@<TRIPOS>BOND
     1    1    2 1
     2    1   21 1
     3    1   22 1
     4    1   23 1
     5    2   12 1
     6    2    3 2
     7    3    4 1
     8    4    9 ar
     9    4    5 ar
    10    5    6 ar
    11    5   24 1
    12    6    7 ar
    13    6   25 1
    14    7    8 ar
    15    7   26 1
    16    8    9 ar
    17    8   27 1
    18    9   10 1
    19   10   11 1
    20   11   16 ar
    21   11   12 ar
    22   12   13 ar
    23   13   14 ar
    24   14   15 ar
    25   14   28 1
    26   15   16 ar
    27   15   17 1
    28   16   29 1
    29   17   18 1
    30   17   19 1
    31   17   20 1
@<TRIPOS>MOLECULE
ZINC17355649
   35    37     0     0     0
SMALL
USER_CHARGES
(4-methyl-1-piperidyl)-[2-(2-thienyl)thiazol-4-yl]methanone
@<TRIPOS>ATOM
      1 C1          4.9863    5.9930   -2.5980 C.3       1 <0>        -0.1472
      2 C2          4.7558    5.0923   -1.3829 C.3       1 <0>        -0.0946
      3 C3          5.6606    3.8619   -1.4812 C.3       1 <0>        -0.1287
      4 C4          5.4523    2.9798   -0.2462 C.3       1 <0>         0.1087
      5 N1          4.0217    2.6685   -0.1233 N.am      1 <0>        -0.5908
      6 C5          3.0558    3.7756   -0.1164 C.3       1 <0>         0.0745
      7 C6          3.2914    4.6491   -1.3473 C.3       1 <0>        -0.1307
      8 C7          3.6029    1.3912   -0.0244 C.2       1 <0>         0.5899
      9 O1          4.4127    0.4836   -0.0290 O.2       1 <0>        -0.5362
     10 C8          2.1648    1.0944    0.0892 C.2       1 <0>         0.0020
     11 C9          1.6854   -0.1517   -0.2275 C.2       1 <0>        -0.1609
     12 S1         -0.0137    0.0409    0.0754 S.3       1 <0>         0.1397
     13 C10         0.0279    1.7481    0.5973 C.2       1 <0>         0.1617
     14 N2          1.3173    2.0275    0.4991 N.2       1 <0>        -0.4594
     15 C11        -1.0816    2.6177    1.0197 C.2       1 <0>        -0.1036
     16 C12        -2.4200    2.3294    1.1103 C.2       1 <0>        -0.1100
     17 C13        -3.2803    3.3136    1.5397 C.2       1 <0>        -0.1623
     18 C14        -2.7828    4.5398    1.8488 C.2       1 <0>        -0.1598
     19 S2         -1.0377    4.3250    1.5401 S.3       1 <0>         0.1281
     20 H1          4.7523    5.4416   -3.5086 H         1 <0>         0.0536
     21 H2          4.3419    6.8693   -2.5281 H         1 <0>         0.0558
     22 H3          6.0290    6.3097   -2.6228 H         1 <0>         0.0555
     23 H4          4.9903    5.6437   -0.4724 H         1 <0>         0.0721
     24 H5          6.7022    4.1794   -1.5301 H         1 <0>         0.0768
     25 H6          5.4096    3.2965   -2.3786 H         1 <0>         0.0663
     26 H7          5.7882    3.5120    0.6438 H         1 <0>         0.0698
     27 H8          6.0192    2.0555   -0.3575 H         1 <0>         0.0935
     28 H9          2.0419    3.3761   -0.1421 H         1 <0>         0.1408
     29 H10         3.1923    4.3740    0.7844 H         1 <0>         0.0654
     30 H11         2.6467    5.5267   -1.3008 H         1 <0>         0.0753
     31 H12         3.0627    4.0762   -2.2460 H         1 <0>         0.0622
     32 H13         2.2227   -1.0222   -0.5739 H         1 <0>         0.2130
     33 H14        -2.7905    1.3481    0.8530 H         1 <0>         0.1406
     34 H15        -4.3385    3.1155    1.6253 H         1 <0>         0.1442
     35 H16        -3.3082    5.4185    2.1928 H         1 <0>         0.1943
@<TRIPOS>BOND
     1    1    2 1
     2    1   20 1
     3    1   21 1
     4    1   22 1
     5    2    7 1
     6    2    3 1
     7    2   23 1
     8    3    4 1
     9    3   24 1
    10    3   25 1
    11    4    5 1
    12    4   26 1
    13    4   27 1
    14    5    6 1
    15    5    8 am
    16    6    7 1
    17    6   28 1
    18    6   29 1
    19    7   30 1
    20    7   31 1
    21    8    9 2
    22    8   10 1
    23   10   14 1
    24   10   11 2
    25   11   12 1
    26   11   32 1
    27   12   13 1
    28   13   14 2
    29   13   15 1
    30   15   19 1
    31   15   16 2
    32   16   17 1
    33   16   33 1
    34   17   18 2
    35   17   34 1
    36   18   19 1
    37   18   35 1
@<TRIPOS>MOLECULE
ZINC38818490
   28    30     0     0     0
SMALL
USER_CHARGES

@<TRIPOS>ATOM
      1 C1         -0.0156    1.3801    0.0125 C.ar      1 <0>        -0.1068
      2 C2          0.4511    0.7711    1.1624 C.ar      1 <0>        -0.1151
      3 C3          1.6570    0.0955    1.1462 C.ar      1 <0>        -0.1265
      4 C4          2.3960    0.0285   -0.0201 C.ar      1 <0>        -0.1124
      5 C5          1.9290    0.6367   -1.1703 C.ar      1 <0>        -0.1326
      6 C6          0.7237    1.3135   -1.1537 C.ar      1 <0>        -0.1119
      7 C7          3.7112   -0.7071   -0.0376 C.3       1 <0>        -0.0234
      8 H1          4.5299    0.0062   -0.1320 H         1 <0>         0.1310
      9 C8          3.8704   -1.5022    1.2474 C.3       1 <0>         0.0236
     10 H2          4.0364   -0.8022    2.0663 H         1 <0>         0.1533
     11 C9          2.7020   -2.3769    1.6019 C.3       1 <0>        -0.1748
     12 S1          1.8515   -3.1624    0.2294 S.3       1 <0>         0.1812
     13 C10         2.4042   -2.4411   -1.1626 C.2       1 <0>         0.1902
     14 N1          1.7703   -2.4498   -2.2967 N.2       1 <0>        -0.5625
     15 C11         2.1481   -1.7727   -3.3961 C.2       1 <0>         0.5818
     16 O1          1.6917   -1.8344   -4.5234 O.2       1 <0>        -0.3807
     17 S2          3.4914   -0.7564   -2.7843 S.3       1 <0>        -0.2620
     18 C12         3.7400   -1.6846   -1.2153 C.3       1 <0>        -0.0679
     19 H3          4.6135   -2.3366   -1.2126 H         1 <0>         0.1597
     20 C13         5.0629   -2.3557    1.1203 C.1       1 <0>         0.1823
     21 N2          5.9832   -3.0144    1.0221 N.1       1 <0>        -0.3886
     22 H4         -0.9599    1.9040    0.0240 H         1 <0>         0.1239
     23 H5         -0.1263    0.8234    2.0736 H         1 <0>         0.1278
     24 H6          2.0219   -0.3797    2.0447 H         1 <0>         0.1360
     25 H7          2.5066    0.5847   -2.0814 H         1 <0>         0.1638
     26 H8          0.3590    1.7890   -2.0521 H         1 <0>         0.1230
     27 H9          3.0556   -3.1590    2.2738 H         1 <0>         0.1367
     28 H10         1.9782   -1.7712    2.1472 H         1 <0>         0.1507
@<TRIPOS>BOND
     1    1    6 ar
     2    1    2 ar
     3    1   22 1
     4    2    3 ar
     5    2   23 1
     6    3    4 ar
     7    3   24 1
     8    4    5 ar
     9    4    7 1
    10    5    6 ar
    11    5   25 1
    12    6   26 1
    13    7    8 1
    14    7   18 1
    15    7    9 1
    16    9   10 1
    17    9   11 1
    18    9   20 1
    19   11   12 1
    20   11   27 1
    21   11   28 1
    22   12   13 1
    23   13   18 1
    24   13   14 2
    25   14   15 1
    26   15   16 2
    27   15   17 1
    28   17   18 1
    29   18   19 1
    30   20   21 3
@<TRIPOS>MOLECULE
ZINC48835881
   31    33     0     0     0
SMALL
USER_CHARGES

@<TRIPOS>ATOM
      1 C1         -0.0167    1.3781    0.0096 C.ar      1 <0>        -0.1132
      2 C2          1.1709    2.0855    0.0021 C.ar      1 <0>        -0.1205
      3 C3          2.3773    1.4107   -0.0130 C.ar      1 <0>        -0.1063
      4 C4          2.3960    0.0285   -0.0201 C.ar      1 <0>        -0.0886
      5 C5          1.2084   -0.6789   -0.0117 C.ar      1 <0>        -0.0895
      6 C6          0.0021   -0.0041    0.0020 C.ar      1 <0>        -0.1221
      7 C7          3.7112   -0.7071   -0.0376 C.3       1 <0>         0.1215
      8 H1          4.4965   -0.0405   -0.3939 H         1 <0>         0.0715
      9 C8          4.0492   -1.1853    1.3791 C.3       1 <0>         0.1127
     10 N1          5.2333   -2.0559    1.3049 N.pl3     1 <0>        -0.6113
     11 C9          5.2245   -3.1535    0.3248 C.3       1 <0>         0.0938
     12 C10         4.8292   -2.5794   -1.0405 C.3       1 <0>         0.0479
     13 O1          3.6142   -1.8381   -0.9066 O.3       1 <0>        -0.3701
     14 C11         6.3393   -1.8451    2.1444 C.2       1 <0>         0.3594
     15 C12         6.3204   -0.9015    3.1260 C.2       1 <0>        -0.3194
     16 S1          7.9531   -1.1110    3.8177 S.3       1 <0>         0.1945
     17 C13         8.4771   -2.3504    2.8071 C.2       1 <0>         0.0980
     18 N2          7.4460   -2.5565    2.0231 N.2       1 <0>        -0.5417
     19 Cl1        10.0105   -3.1643    2.8065 Cl        1 <0>         0.0589
     20 H2         -0.9591    1.9053    0.0259 H         1 <0>         0.1237
     21 H3          1.1563    3.1654    0.0076 H         1 <0>         0.1252
     22 H4          3.3051    1.9634   -0.0196 H         1 <0>         0.1228
     23 H5          1.2231   -1.7588   -0.0176 H         1 <0>         0.1269
     24 H6         -0.9258   -0.5567    0.0082 H         1 <0>         0.1245
     25 H7          4.2642   -0.3265    2.0150 H         1 <0>         0.0920
     26 H8          3.2077   -1.7443    1.7885 H         1 <0>         0.0771
     27 H9          6.2178   -3.5980    0.2625 H         1 <0>         0.1012
     28 H10         4.5013   -3.9106    0.6280 H         1 <0>         0.0693
     29 H11         5.6191   -1.9203   -1.4008 H         1 <0>         0.0556
     30 H12         4.6823   -3.3942   -1.7494 H         1 <0>         0.1085
     31 H13         5.5351   -0.2156    3.4078 H         1 <0>         0.1976
@<TRIPOS>BOND
     1    1    6 ar
     2    1    2 ar
     3    1   20 1
     4    2    3 ar
     5    2   21 1
     6    3    4 ar
     7    3   22 1
     8    4    5 ar
     9    4    7 1
    10    5    6 ar
    11    5   23 1
    12    6   24 1
    13    7    8 1
    14    7   13 1
    15    7    9 1
    16    9   10 1
    17    9   25 1
    18    9   26 1
    19   10   11 1
    20   10   14 1
    21   11   12 1
    22   11   27 1
    23   11   28 1
    24   12   13 1
    25   12   29 1
    26   12   30 1
    27   14   18 1
    28   14   15 2
    29   15   16 1
    30   15   31 1
    31   16   17 1
    32   17   18 2
    33   17   19 1
@<TRIPOS>MOLECULE
ZINC52533045
   44    48     0     0     0
SMALL
USER_CHARGES

@<TRIPOS>ATOM
      1 C1         -0.0166    1.3750    0.0096 C.ar      1 <0>        -0.1156
      2 C2          1.1687    2.0883    0.0021 C.ar      1 <0>        -0.1151
      3 C3          2.3801    1.4204   -0.0135 C.ar      1 <0>        -0.0810
      4 C4          2.4083    0.0417   -0.0212 C.ar      1 <0>        -0.0771
      5 C5          1.2210   -0.6848   -0.0133 C.ar      1 <0>        -0.0574
      6 C6          0.0021   -0.0041    0.0020 C.ar      1 <0>        -0.0985
      7 C7          1.5297   -2.1362   -0.0247 C.ar      1 <0>        -0.0494
      8 C8          0.6935   -3.2543   -0.0227 C.ar      1 <0>        -0.0978
      9 C9          1.2378   -4.5215   -0.0354 C.ar      1 <0>        -0.1144
     10 C10         2.6107   -4.6904   -0.0503 C.ar      1 <0>        -0.1127
     11 C11         3.4454   -3.5871   -0.0524 C.ar      1 <0>        -0.0928
     12 C12         2.9100   -2.3164   -0.0397 C.ar      1 <0>        -0.1218
     13 C13         3.5470   -0.9484   -0.0383 C.3       1 <0>         0.1653
     14 N1          4.3815   -0.7802    1.1589 N.3       1 <0>        -0.5147
     15 C14         3.6347   -1.1292    2.3741 C.3       1 <0>         0.0634
     16 C15         4.4809   -0.8001    3.6064 C.3       1 <0>        -0.1312
     17 C16         5.7932   -1.5846    3.5411 C.3       1 <0>         0.2568
     18 C17         6.5284   -1.2471    2.2421 C.3       1 <0>        -0.1145
     19 C18         5.6195   -1.5626    1.0516 C.3       1 <0>         0.0520
     20 O1          6.6178   -1.2342    4.6638 O.3       1 <0>        -0.3701
     21 C19         6.3516   -2.2587    5.6520 C.3       1 <0>         0.0149
     22 C20         6.1686   -3.5142    4.7629 C.3       1 <0>         0.0198
     23 O2          5.5176   -2.9898    3.5878 O.3       1 <0>        -0.3744
     24 H1         -0.9603    1.9001    0.0260 H         1 <0>         0.1264
     25 H2          1.1483    3.1681    0.0081 H         1 <0>         0.1277
     26 H3          3.3044    1.9791   -0.0200 H         1 <0>         0.1282
     27 H4         -0.9256   -0.5570    0.0076 H         1 <0>         0.1218
     28 H5         -0.3789   -3.1269   -0.0107 H         1 <0>         0.1226
     29 H6          0.5895   -5.3854   -0.0335 H         1 <0>         0.1267
     30 H7          3.0316   -5.6850   -0.0598 H         1 <0>         0.1268
     31 H8          4.5170   -3.7211   -0.0640 H         1 <0>         0.1242
     32 H9          4.1482   -0.8134   -0.9375 H         1 <0>         0.1089
     33 H10         2.7072   -0.5575    2.4072 H         1 <0>         0.0775
     34 H11         3.4044   -2.1945    2.3656 H         1 <0>         0.0489
     35 H12         4.6960    0.2683    3.6256 H         1 <0>         0.0891
     36 H13         3.9348   -1.0784    4.5078 H         1 <0>         0.0725
     37 H14         6.7848   -0.1877    2.2336 H         1 <0>         0.0896
     38 H15         7.4383   -1.8432    2.1734 H         1 <0>         0.0791
     39 H16         5.3784   -2.6256    1.0503 H         1 <0>         0.0530
     40 H17         6.1324   -1.3054    0.1248 H         1 <0>         0.0823
     41 H18         7.1987   -2.3789    6.3273 H         1 <0>         0.1096
     42 H19         5.4401   -2.0377    6.2074 H         1 <0>         0.0756
     43 H20         7.1348   -3.9487    4.5065 H         1 <0>         0.0765
     44 H21         5.5343   -4.2486    5.2594 H         1 <0>         0.0993
@<TRIPOS>BOND
     1    1    6 ar
     2    1    2 ar
     3    1   24 1
     4    2    3 ar
     5    2   25 1
     6    3    4 ar
     7    3   26 1
     8    4   13 1
     9    4    5 ar
    10    5    6 ar
    11    5    7 1
    12    6   27 1
    13    7   12 ar
    14    7    8 ar
    15    8    9 ar
    16    8   28 1
    17    9   10 ar
    18    9   29 1
    19   10   11 ar
    20   10   30 1
    21   11   12 ar
    22   11   31 1
    23   12   13 1
    24   13   14 1
    25   13   32 1
    26   14   19 1
    27   14   15 1
    28   15   16 1
    29   15   33 1
    30   15   34 1
    31   16   17 1
    32   16   35 1
    33   16   36 1
    34   17   23 1
    35   17   18 1
    36   17   20 1
    37   18   19 1
    38   18   37 1
    39   18   38 1
    40   19   39 1
    41   19   40 1
    42   20   21 1
    43   21   22 1
    44   21   41 1
    45   21   42 1
    46   22   23 1
    47   22   43 1
    48   22   44 1
@<TRIPOS>MOLECULE
ZINC00810756
   32    34     0     0     0
SMALL
USER_CHARGES
N-(2,6-difluorophenyl)-2,5-dioxabicyclo[4.4.0]deca-7,9,11-triene-3-carboxamide
@<TRIPOS>ATOM
      1 C1          6.6353    9.5517   -2.1251 C.ar      1 <0>        -0.1133
      2 C2          5.4859   10.1717   -1.6712 C.ar      1 <0>        -0.1116
      3 C3          4.4154    9.4142   -1.2354 C.ar      1 <0>        -0.1085
      4 C4          4.4912    8.0293   -1.2527 C.ar      1 <0>         0.0502
      5 C5          5.6474    7.4062   -1.7069 C.ar      1 <0>         0.0439
      6 C6          6.7180    8.1724   -2.1434 C.ar      1 <0>        -0.1100
      7 O1          5.7448    6.0488   -1.7282 O.3       1 <0>        -0.2976
      8 C7          4.5191    5.3145   -1.6372 C.3       1 <0>         0.0354
      9 C8          3.6775    5.9230   -0.5072 C.3       1 <0>         0.0394
     10 H1          4.2223    5.8564    0.4345 H         1 <0>         0.1166
     11 O2          3.4273    7.2966   -0.8242 O.3       1 <0>        -0.2790
     12 C9          2.3704    5.1819   -0.3915 C.2       1 <0>         0.5311
     13 O3          1.3284    5.7458   -0.6515 O.2       1 <0>        -0.4845
     14 N1          2.3592    3.8926    0.0009 N.am      1 <0>        -0.6761
     15 C10         1.1571    3.1716    0.0049 C.ar      1 <0>         0.0581
     16 C11         0.7383    2.5090   -1.1427 C.ar      1 <0>         0.1407
     17 C12        -0.4485    1.7981   -1.1347 C.ar      1 <0>        -0.1580
     18 C13        -1.2204    1.7510    0.0115 C.ar      1 <0>        -0.0486
     19 C14        -0.8043    2.4042    1.1569 C.ar      1 <0>        -0.1581
     20 C15         0.3812    3.1172    1.1568 C.ar      1 <0>         0.1425
     21 F1          0.7845    3.7593    2.2749 F         1 <0>        -0.1215
     22 F2          1.4894    2.5586   -2.2646 F         1 <0>        -0.1228
     23 H2          7.4698   10.1464   -2.4662 H         1 <0>         0.1352
     24 H3          5.4246   11.2499   -1.6572 H         1 <0>         0.1356
     25 H4          3.5185    9.9010   -0.8819 H         1 <0>         0.1376
     26 H5          7.6170    7.6905   -2.4983 H         1 <0>         0.1372
     27 H6          4.7324    4.2690   -1.4146 H         1 <0>         0.1288
     28 H7          3.9764    5.3870   -2.5797 H         1 <0>         0.0874
     29 H8          3.1830    3.4635    0.2805 H         1 <0>         0.4159
     30 H9         -0.7746    1.2829   -2.0261 H         1 <0>         0.1511
     31 H10        -2.1488    1.1992    0.0133 H         1 <0>         0.1516
     32 H11        -1.4079    2.3617    2.0515 H         1 <0>         0.1511
@<TRIPOS>BOND
     1    1    6 ar
     2    1    2 ar
     3    1   23 1
     4    2    3 ar
     5    2   24 1
     6    3    4 ar
     7    3   25 1
     8    4   11 1
     9    4    5 ar
    10    5    6 ar
    11    5    7 1
    12    6   26 1
    13    7    8 1
    14    8    9 1
    15    8   27 1
    16    8   28 1
    17    9   10 1
    18    9   11 1
    19    9   12 1
    20   12   13 2
    21   12   14 am
    22   14   15 1
    23   14   29 1
    24   15   20 ar
    25   15   16 ar
    26   16   17 ar
    27   16   22 1
    28   17   18 ar
    29   17   30 1
    30   18   19 ar
    31   18   31 1
    32   19   20 ar
    33   19   32 1
    34   20   21 1
@<TRIPOS>MOLECULE
ZINC20006878
   33    36     0     0     0
SMALL
USER_CHARGES
(3S)-3-[3-(2-thienyl)-1,2,4-oxadiazol-5-yl]-1,2,3,4-tetrahydroisoquinoline
@<TRIPOS>ATOM
      1 C1          2.3930    0.0167   -0.0137 C.ar      1 <0>        -0.1164
      2 C2          1.2021   -0.6857   -0.0096 C.ar      1 <0>        -0.1184
      3 C3          0.0021   -0.0041    0.0020 C.ar      1 <0>        -0.1126
      4 C4         -0.0167    1.3831    0.0096 C.ar      1 <0>        -0.0833
      5 C5          1.1708    2.0827    0.0021 C.ar      1 <0>        -0.0686
      6 C6          2.3761    1.3969   -0.0079 C.ar      1 <0>        -0.1156
      7 C7          1.2011    3.5896   -0.0011 C.3       1 <0>        -0.0713
      8 C8         -0.1594    4.1398    0.4277 C.3       1 <0>         0.1742
      9 H1         -0.3588    3.9362    1.4901 H         1 <0>         0.0964
     10 N1         -1.2031    3.4831   -0.3753 N.3       1 <0>        -0.6615
     11 C9         -1.3507    2.0821    0.0324 C.3       1 <0>         0.0893
     12 C10        -0.2008    5.6278    0.1923 C.2       1 <0>         0.1911
     13 N2         -0.1224    6.5616    1.1067 N.2       1 <0>        -0.4651
     14 C11        -0.1995    7.7349    0.4356 C.2       1 <0>         0.2531
     15 N3         -0.3280    7.4441   -0.8356 N.2       1 <0>        -0.3630
     16 O1         -0.3302    6.2409   -0.9886 O.3       1 <0>         0.1077
     17 C12        -0.1533    9.0884    1.0260 C.2       1 <0>        -0.1107
     18 C13        -0.2263   10.3054    0.4015 C.2       1 <0>        -0.1032
     19 C14        -0.1646   11.4472    1.1676 C.2       1 <0>        -0.1648
     20 C15        -0.0229   11.3341    2.5142 C.2       1 <0>        -0.1605
     21 S1          0.0200    9.5635    2.7383 S.3       1 <0>         0.1246
     22 H2          3.3341   -0.5132   -0.0211 H         1 <0>         0.1244
     23 H3          1.2108   -1.7657   -0.0158 H         1 <0>         0.1245
     24 H4         -0.9276   -0.5537    0.0055 H         1 <0>         0.1244
     25 H5          3.3063    1.9455   -0.0111 H         1 <0>         0.1238
     26 H6          1.9718    3.9423    0.7000 H         1 <0>         0.0904
     27 H7          1.4345    3.9495   -1.0140 H         1 <0>         0.0961
     28 H8         -2.1610    4.0034   -0.2278 H         1 <0>         0.3566
     29 H9         -2.0403    1.5787   -0.6612 H         1 <0>         0.1027
     30 H10        -1.7652    2.0480    1.0507 H         1 <0>         0.0554
     31 H11        -0.3335   10.3678   -0.6713 H         1 <0>         0.1416
     32 H12        -0.2237   12.4207    0.7038 H         1 <0>         0.1439
     33 H13         0.0465   12.1145    3.2576 H         1 <0>         0.1949
@<TRIPOS>BOND
     1    1    6 ar
     2    1    2 ar
     3    1   22 1
     4    2    3 ar
     5    2   23 1
     6    3    4 ar
     7    3   24 1
     8    4   11 1
     9    4    5 ar
    10    5    6 ar
    11    5    7 1
    12    6   25 1
    13    7    8 1
    14    7   26 1
    15    7   27 1
    16    8    9 1
    17    8   10 1
    18    8   12 1
    19   10   11 1
    20   10   28 1
    21   11   29 1
    22   11   30 1
    23   12   16 1
    24   12   13 2
    25   13   14 1
    26   14   15 2
    27   14   17 1
    28   15   16 1
    29   17   21 1
    30   17   18 2
    31   18   19 1
    32   18   31 1
    33   19   20 2
    34   19   32 1
    35   20   21 1
    36   20   33 1
@<TRIPOS>MOLECULE
ZINC38611407
   44    46     0     0     0
SMALL
USER_CHARGES

@<TRIPOS>ATOM
      1 C1          0.3140    1.4933   -0.2451 C.3       1 <0>        -0.1168
      2 C2          0.3503   -0.0133   -0.2510 C.ar      1 <0>        -0.0723
      3 C3          1.1117   -0.6827   -1.1907 C.ar      1 <0>        -0.1461
      4 C4          1.1450   -2.0646   -1.1961 C.ar      1 <0>        -0.0557
      5 C5          0.4172   -2.7771   -0.2615 C.ar      1 <0>        -0.1210
      6 C6         -0.3436   -2.1078    0.6787 C.ar      1 <0>        -0.1450
      7 C7         -0.3735   -0.7257    0.6868 C.ar      1 <0>        -0.1439
      8 C8          0.4526   -4.2837   -0.2681 C.3       1 <0>         0.0016
      9 H1          0.5544   -4.6442   -1.2917 H         1 <0>         0.1034
     10 C9         -0.8372   -4.8326    0.3462 C.3       1 <0>        -0.1380
     11 H2         -0.8920   -5.9168    0.2491 H         1 <0>         0.1420
     12 C10        -2.0674   -4.1674   -0.2172 C.2       1 <0>         0.1287
     13 N1         -2.6385   -3.5724    0.7824 N.2       1 <0>        -0.3100
     14 N2         -1.9192   -3.7155    1.9694 N.2       1 <0>        -0.2979
     15 C11        -0.8320   -4.4018    1.8075 C.2       1 <0>         0.1114
     16 C12         0.3334   -4.6817    2.7224 C.3       1 <0>        -0.0768
     17 C13         1.5935   -4.1950    1.9851 C.3       1 <0>         0.1583
     18 C14         1.6356   -4.7760    0.5728 C.3       1 <0>        -0.1233
     19 H3          1.6016   -5.8638    0.6338 H         1 <0>         0.1102
     20 C15         2.9215   -4.3610   -0.0945 C.2       1 <0>         0.3696
     21 O1          2.9596   -3.3523   -0.7573 O.2       1 <0>        -0.4395
     22 C16         4.1598   -5.2049    0.0653 C.3       1 <0>        -0.2028
     23 C17         1.5754   -2.6673    1.9043 C.3       1 <0>        -0.2308
     24 O2          2.7548   -4.6148    2.7043 O.3       1 <0>        -0.5531
     25 C18        -2.5364   -4.1896   -1.6491 C.3       1 <0>        -0.0882
     26 H4          1.1124    1.8734    0.3921 H         1 <0>         0.0686
     27 H5          0.4521    1.8640   -1.2608 H         1 <0>         0.0651
     28 H6         -0.6487    1.8320    0.1376 H         1 <0>         0.0646
     29 H7          1.6804   -0.1260   -1.9209 H         1 <0>         0.1167
     30 H8          1.7394   -2.5876   -1.9307 H         1 <0>         0.1333
     31 H9         -0.9125   -2.6645    1.4086 H         1 <0>         0.1666
     32 H10        -0.9649   -0.2027    1.4237 H         1 <0>         0.1145
     33 H11         0.2135   -4.1355    3.6580 H         1 <0>         0.1039
     34 H12         0.4053   -5.7513    2.9194 H         1 <0>         0.1124
     35 H13         3.9710   -6.2047   -0.3255 H         1 <0>         0.0887
     36 H14         4.9833   -4.7493   -0.4846 H         1 <0>         0.0797
     37 H15         4.4206   -5.2709    1.1215 H         1 <0>         0.1054
     38 H16         2.2957   -2.2574    2.6123 H         1 <0>         0.0578
     39 H17         1.8399   -2.3537    0.8944 H         1 <0>         0.1069
     40 H18         0.5778   -2.3023    2.1485 H         1 <0>         0.0954
     41 H19         2.8022   -4.2740    3.6081 H         1 <0>         0.3870
     42 H20        -3.1964   -5.0436   -1.8021 H         1 <0>         0.0932
     43 H21        -3.0769   -3.2689   -1.8687 H         1 <0>         0.0898
     44 H22        -1.6754   -4.2725   -2.3123 H         1 <0>         0.0866
@<TRIPOS>BOND
     1    1    2 1
     2    1   26 1
     3    1   27 1
     4    1   28 1
     5    2    7 ar
     6    2    3 ar
     7    3    4 ar
     8    3   29 1
     9    4    5 ar
    10    4   30 1
    11    5    6 ar
    12    5    8 1
    13    6    7 ar
    14    6   31 1
    15    7   32 1
    16    8    9 1
    17    8   18 1
    18    8   10 1
    19   10   11 1
    20   10   15 1
    21   10   12 1
    22   12   13 2
    23   12   25 1
    24   13   14 1
    25   14   15 2
    26   15   16 1
    27   16   17 1
    28   16   33 1
    29   16   34 1
    30   17   18 1
    31   17   23 1
    32   17   24 1
    33   18   19 1
    34   18   20 1
    35   20   21 2
    36   20   22 1
    37   22   35 1
    38   22   36 1
    39   22   37 1
    40   23   38 1
    41   23   39 1
    42   23   40 1
    43   24   41 1
    44   25   42 1
    45   25   43 1
    46   25   44 1
@<TRIPOS>MOLECULE
ZINC52122462
   29    32     0     0     0
SMALL
USER_CHARGES

@<TRIPOS>ATOM
      1 C1          0.7748    0.0418   -1.1501 C.ar      1 <0>        -0.0613
      2 C2          1.9622    0.7491   -1.1599 C.ar      1 <0>        -0.0877
      3 C3          2.3847    1.4136   -0.0203 C.ar      1 <0>         0.0586
      4 C4          1.6112    1.3694    1.1377 C.ar      1 <0>         0.0445
      5 C5          0.4218    0.6610    1.1463 C.ar      1 <0>        -0.0814
      6 C6          0.0021   -0.0041    0.0020 C.ar      1 <0>         0.1238
      7 N1         -1.2024   -0.7216    0.0102 N.pl3     1 <0>        -0.4244
      8 C7         -2.4782   -0.1720    0.1188 C.ar      1 <0>         0.1060
      9 C8         -2.9468    1.1272    0.2431 C.ar      1 <0>        -0.1285
     10 C9         -4.3067    1.3624    0.3324 C.ar      1 <0>         0.1267
     11 C10        -5.2019    0.3043    0.2984 C.ar      1 <0>        -0.1287
     12 C11        -4.7424   -0.9923    0.1747 C.ar      1 <0>        -0.0609
     13 C12        -3.3807   -1.2370    0.0841 C.ar      1 <0>         0.0678
     14 N2         -2.6251   -2.4008   -0.0444 N.pl3     1 <0>        -0.5713
     15 C13        -1.3238   -2.0586   -0.0914 C.2       1 <0>         0.5069
     16 S1         -0.0207   -3.1573   -0.2520 S.2       1 <0>        -0.5598
     17 F1         -4.7645    2.6277    0.4536 F         1 <0>        -0.1234
     18 O1          2.2381    2.0953    2.1090 O.3       1 <0>        -0.3028
     19 C14         3.5984    2.2437    1.6609 C.3       1 <0>         0.2124
     20 O2          3.4964    2.1679    0.2267 O.3       1 <0>        -0.3017
     21 H1          0.4457   -0.4721   -2.0412 H         1 <0>         0.1481
     22 H2          2.5618    0.7834   -2.0575 H         1 <0>         0.1517
     23 H3         -0.1791    0.6252    2.0430 H         1 <0>         0.1426
     24 H4         -2.2516    1.9532    0.2706 H         1 <0>         0.1510
     25 H5         -6.2626    0.4946    0.3692 H         1 <0>         0.1568
     26 H6         -5.4426   -1.8142    0.1488 H         1 <0>         0.1528
     27 H7          3.9987    3.2106    1.9658 H         1 <0>         0.1382
     28 H8          4.2184    1.4333    2.0441 H         1 <0>         0.0917
     29 H9         -2.9768   -3.3034   -0.0948 H         1 <0>         0.4523
@<TRIPOS>BOND
     1    1    6 ar
     2    1    2 ar
     3    1   21 1
     4    2    3 ar
     5    2   22 1
     6    3   20 1
     7    3    4 ar
     8    4    5 ar
     9    4   18 1
    10    5    6 ar
    11    5   23 1
    12    6    7 1
    13    7   15 1
    14    7    8 1
    15    8   13 ar
    16    8    9 ar
    17    9   10 ar
    18    9   24 1
    19   10   11 ar
    20   10   17 1
    21   11   12 ar
    22   11   25 1
    23   12   13 ar
    24   12   26 1
    25   13   14 1
    26   14   15 1
    27   14   29 1
    28   15   16 2
    29   18   19 1
    30   19   20 1
    31   19   27 1
    32   19   28 1
@<TRIPOS>MOLECULE
ZINC61397026
   39    42     0     0     0
SMALL
USER_CHARGES

@<TRIPOS>ATOM
      1 C1         -0.0167    1.3793    0.0096 C.ar      1 <0>        -0.1471
      2 C2          1.1742    2.0821    0.0020 C.ar      1 <0>        -0.0832
      3 C3          2.3793    1.4113   -0.0093 C.ar      1 <0>        -0.1305
      4 C4          2.4070    0.0187   -0.0134 C.ar      1 <0>         0.1090
      5 C5          1.2044   -0.6760   -0.0132 C.ar      1 <0>        -0.1784
      6 C6          0.0021   -0.0041    0.0020 C.ar      1 <0>        -0.0687
      7 C7          1.5447   -2.1535   -0.0431 C.3       1 <0>        -0.1014
      8 C8          3.0352   -2.1302   -0.4570 C.3       1 <0>         0.0693
      9 O1          3.4686   -0.8335   -0.0121 O.3       1 <0>        -0.2720
     10 C9          3.1762   -2.2564   -1.9520 C.2       1 <0>         0.5169
     11 O2          3.6366   -1.3385   -2.5973 O.2       1 <0>        -0.5029
     12 N1          2.7908   -3.3894   -2.5720 N.am      1 <0>        -0.6063
     13 C10         2.2119   -4.5747   -1.9138 C.3       1 <0>         0.0865
     14 C11         1.3980   -5.2865   -3.0232 C.3       1 <0>        -0.1323
     15 C12         2.2977   -5.0559   -4.2661 C.3       1 <0>        -0.1231
     16 C13         2.8721   -3.6454   -4.0175 C.3       1 <0>         0.2103
     17 C14         4.3096   -3.5938   -4.4670 C.2       1 <0>         0.0094
     18 C15         5.3762   -4.0092   -3.7541 C.2       1 <0>        -0.1787
     19 C16         6.5232   -3.7827   -4.5404 C.2       1 <0>        -0.2007
     20 C17         6.1137   -3.2374   -5.7038 C.2       1 <0>        -0.0089
     21 N2          4.7555   -3.1245   -5.6669 N.pl3     1 <0>        -0.5515
     22 H1          4.1986   -2.7669   -6.3762 H         1 <0>         0.4119
     23 H2         -0.9581    1.9084    0.0260 H         1 <0>         0.1297
     24 H3          1.1606    3.1620    0.0046 H         1 <0>         0.1331
     25 H4          3.3049    1.9678   -0.0146 H         1 <0>         0.1298
     26 H5         -0.9257   -0.5569    0.0087 H         1 <0>         0.1255
     27 H6          1.4211   -2.6017    0.9427 H         1 <0>         0.1060
     28 H7          0.9424   -2.6769   -0.7857 H         1 <0>         0.0986
     29 H8          3.5897   -2.9185    0.0523 H         1 <0>         0.1424
     30 H9          3.0027   -5.2280   -1.5451 H         1 <0>         0.0772
     31 H10         1.5564   -4.2728   -1.0969 H         1 <0>         0.0850
     32 H11         1.2926   -6.3500   -2.8091 H         1 <0>         0.0911
     33 H12         0.4229   -4.8174   -3.1543 H         1 <0>         0.0795
     34 H13         3.0942   -5.7987   -4.3087 H         1 <0>         0.0867
     35 H14         1.7041   -5.0724   -5.1802 H         1 <0>         0.0855
     36 H15         2.2854   -2.9034   -4.5590 H         1 <0>         0.0785
     37 H16         5.3552   -4.4367   -2.7625 H         1 <0>         0.1261
     38 H17         7.5429   -4.0046   -4.2623 H         1 <0>         0.1341
     39 H18         6.7513   -2.9447   -6.5249 H         1 <0>         0.1638
@<TRIPOS>BOND
     1    1    6 ar
     2    1    2 ar
     3    1   23 1
     4    2    3 ar
     5    2   24 1
     6    3    4 ar
     7    3   25 1
     8    4    9 1
     9    4    5 ar
    10    5    6 ar
    11    5    7 1
    12    6   26 1
    13    7    8 1
    14    7   27 1
    15    7   28 1
    16    8    9 1
    17    8   10 1
    18    8   29 1
    19   10   11 2
    20   10   12 am
    21   12   16 1
    22   12   13 1
    23   13   14 1
    24   13   30 1
    25   13   31 1
    26   14   15 1
    27   14   32 1
    28   14   33 1
    29   15   16 1
    30   15   34 1
    31   15   35 1
    32   16   17 1
    33   16   36 1
    34   17   21 1
    35   17   18 2
    36   18   19 1
    37   18   37 1
    38   19   20 2
    39   19   38 1
    40   20   21 1
    41   20   39 1
    42   21   22 1
@<TRIPOS>MOLECULE
ZINC01406982
   34    37     0     0     0
SMALL
USER_CHARGES
2-phenyl-4-(2-quinolyl)-4H-oxazol-5-one
@<TRIPOS>ATOM
      1 C1        -10.1182    3.4429   -2.5665 C.ar      1 <0>        -0.0854
      2 C2         -9.5707    2.4022   -3.2954 C.ar      1 <0>        -0.1249
      3 C3         -8.4283    1.7700   -2.8494 C.ar      1 <0>        -0.0721
      4 C4         -7.8253    2.1822   -1.6609 C.ar      1 <0>        -0.0569
      5 C5         -8.3853    3.2287   -0.9278 C.ar      1 <0>        -0.0568
      6 C6         -9.5247    3.8567   -1.3873 C.ar      1 <0>        -0.1259
      7 C7         -6.6003    1.5081   -1.1766 C.2       1 <0>         0.3697
      8 N1         -5.9910    1.8403   -0.0835 N.2       1 <0>        -0.4953
      9 C8         -4.8270    0.9487    0.0550 C.3       1 <0>         0.0397
     10 H1         -4.9038    0.3550    0.9659 H         1 <0>         0.1653
     11 C9         -4.9157    0.0633   -1.1737 C.2       1 <0>         0.4764
     12 O1         -4.1679   -0.8301   -1.4938 O.2       1 <0>        -0.3816
     13 O2         -6.0108    0.4915   -1.8286 O.3       1 <0>        -0.3063
     14 C10        -3.5459    1.7423    0.0466 C.ar      1 <0>         0.1630
     15 C11        -3.6102    3.1341    0.0549 C.ar      1 <0>        -0.1492
     16 C12        -2.4595    3.8697    0.0475 C.ar      1 <0>        -0.0549
     17 C13        -1.2315    3.1816    0.0315 C.ar      1 <0>        -0.0971
     18 C14        -0.0076    3.8700    0.0230 C.ar      1 <0>        -0.0987
     19 C15         1.1589    3.1683    0.0076 C.ar      1 <0>        -0.1093
     20 C16         1.1549    1.7747    0.0006 C.ar      1 <0>        -0.0999
     21 C17        -0.0126    1.0758    0.0080 C.ar      1 <0>        -0.0879
     22 C18        -1.2381    1.7649    0.0175 C.ar      1 <0>         0.1294
     23 N2         -2.4005    1.1049    0.0313 N.ar      1 <0>        -0.4532
     24 H2        -11.0125    3.9347   -2.9198 H         1 <0>         0.1315
     25 H3        -10.0383    2.0843   -4.2155 H         1 <0>         0.1342
     26 H4         -8.0017    0.9579   -3.4195 H         1 <0>         0.1361
     27 H5         -7.9255    3.5494   -0.0046 H         1 <0>         0.1424
     28 H6         -9.9565    4.6701   -0.8232 H         1 <0>         0.1355
     29 H7         -4.5692    3.6308    0.0675 H         1 <0>         0.1505
     30 H8         -2.4908    4.9492    0.0533 H         1 <0>         0.1456
     31 H9          0.0083    4.9499    0.0284 H         1 <0>         0.1332
     32 H10         2.0998    3.6985    0.0011 H         1 <0>         0.1309
     33 H11         2.0937    1.2408   -0.0113 H         1 <0>         0.1335
     34 H12         0.0021   -0.0041    0.0020 H         1 <0>         0.1386
@<TRIPOS>BOND
     1    1    6 ar
     2    1    2 ar
     3    1   24 1
     4    2    3 ar
     5    2   25 1
     6    3    4 ar
     7    3   26 1
     8    4    5 ar
     9    4    7 1
    10    5    6 ar
    11    5   27 1
    12    6   28 1
    13    7   13 1
    14    7    8 2
    15    8    9 1
    16    9   10 1
    17    9   11 1
    18    9   14 1
    19   11   12 2
    20   11   13 1
    21   14   23 ar
    22   14   15 ar
    23   15   16 ar
    24   15   29 1
    25   16   17 ar
    26   16   30 1
    27   17   22 ar
    28   17   18 ar
    29   18   19 ar
    30   18   31 1
    31   19   20 ar
    32   19   32 1
    33   20   21 ar
    34   20   33 1
    35   21   22 ar
    36   21   34 1
    37   22   23 ar
@<TRIPOS>MOLECULE
ZINC12899018
   39    42     0     0     0
SMALL
USER_CHARGES
4-[(2R)-2-methylmorpholin-4-yl]-2-(3-thienyl)quinazoline
@<TRIPOS>ATOM
      1 C1         -0.8787   -6.7577   -2.5077 C.3       1 <0>        -0.1462
      2 C2         -1.5749   -6.2494   -1.2436 C.3       1 <0>         0.0920
      3 H1         -2.5969   -6.6271   -1.2140 H         1 <0>         0.0709
      4 C3         -1.5957   -4.7186   -1.2519 C.3       1 <0>         0.0286
      5 N1         -2.1960   -4.2350   -0.0001 N.pl3     1 <0>        -0.4869
      6 C4         -1.4400   -4.7225    1.1626 C.3       1 <0>         0.0220
      7 C5         -1.4207   -6.2533    1.1467 C.3       1 <0>         0.0671
      8 O1         -0.8628   -6.7052   -0.0901 O.3       1 <0>        -0.3773
      9 C6         -2.2814   -2.8589    0.0076 C.ar      1 <0>         0.3969
     10 C7         -3.5390   -2.2093    0.0900 C.ar      1 <0>        -0.1458
     11 C8         -4.7388   -2.9241    0.1665 C.ar      1 <0>        -0.0544
     12 C9         -5.9210   -2.2476    0.2450 C.ar      1 <0>        -0.1289
     13 C10        -5.9493   -0.8560    0.2491 C.ar      1 <0>        -0.0725
     14 C11        -4.7978   -0.1299    0.1758 C.ar      1 <0>        -0.1088
     15 C12        -3.5652   -0.7931    0.0945 C.ar      1 <0>         0.1700
     16 N2         -2.4051   -0.1253    0.0263 N.ar      1 <0>        -0.5027
     17 C13        -1.2603   -0.7800   -0.0542 C.ar      1 <0>         0.3956
     18 N3         -1.1910   -2.1110   -0.0613 N.ar      1 <0>        -0.5484
     19 C14        -0.0029   -0.0036   -0.1338 C.2       1 <0>        -0.0927
     20 C15        -0.0219    1.3907   -0.1299 C.2       1 <0>        -0.1192
     21 C16         1.1632    2.0353   -0.2055 C.2       1 <0>        -0.1945
     22 S1          2.3266    0.6863   -0.2837 S.3       1 <0>         0.1163
     23 C17         1.2064   -0.6346   -0.2135 C.2       1 <0>        -0.1499
     24 H2          0.1437   -6.3809   -2.5359 H         1 <0>         0.0651
     25 H3         -0.8643   -7.8476   -2.5012 H         1 <0>         0.0708
     26 H4         -1.4197   -6.4068   -3.3865 H         1 <0>         0.0739
     27 H5         -2.1859   -4.3672   -2.0982 H         1 <0>         0.0871
     28 H6         -0.5768   -4.3405   -1.3368 H         1 <0>         0.0649
     29 H7         -0.4184   -4.3452    1.1167 H         1 <0>         0.0646
     30 H8         -1.9166   -4.3740    2.0788 H         1 <0>         0.0882
     31 H9         -2.4383   -6.6311    1.2466 H         1 <0>         0.0633
     32 H10        -0.8138   -6.6189    1.9750 H         1 <0>         0.1059
     33 H11        -4.7294   -4.0041    0.1634 H         1 <0>         0.1429
     34 H12        -6.8475   -2.7994    0.3041 H         1 <0>         0.1336
     35 H13        -6.8980   -0.3437    0.3117 H         1 <0>         0.1360
     36 H14        -4.8349    0.9495    0.1806 H         1 <0>         0.1412
     37 H15        -0.9521    1.9365   -0.0729 H         1 <0>         0.1494
     38 H16         1.3566    3.0978   -0.2163 H         1 <0>         0.1905
     39 H17         1.4132   -1.6945   -0.2290 H         1 <0>         0.1918
@<TRIPOS>BOND
     1    1    2 1
     2    1   24 1
     3    1   25 1
     4    1   26 1
     5    2    3 1
     6    2    8 1
     7    2    4 1
     8    4    5 1
     9    4   27 1
    10    4   28 1
    11    5    6 1
    12    5    9 1
    13    6    7 1
    14    6   29 1
    15    6   30 1
    16    7    8 1
    17    7   31 1
    18    7   32 1
    19    9   18 ar
    20    9   10 ar
    21   10   15 ar
    22   10   11 ar
    23   11   12 ar
    24   11   33 1
    25   12   13 ar
    26   12   34 1
    27   13   14 ar
    28   13   35 1
    29   14   15 ar
    30   14   36 1
    31   15   16 ar
    32   16   17 ar
    33   17   18 ar
    34   17   19 1
    35   19   23 2
    36   19   20 1
    37   20   21 2
    38   20   37 1
    39   21   22 1
    40   21   38 1
    41   22   23 1
    42   23   39 1
@<TRIPOS>MOLECULE
ZINC21661378
   34    36     0     0     0
SMALL
USER_CHARGES
4-[(2-fluorophenyl)methyl]-6-methyl-benzo[e][1,2,4]thiadiazine 1,1-dioxide
@<TRIPOS>ATOM
      1 C1         -0.4117   -0.4158    0.5435 C.3       1 <0>        -0.1283
      2 C2         -0.2573    1.0784    0.4234 C.ar      1 <0>        -0.0040
      3 C3          1.0053    1.6427    0.4353 C.ar      1 <0>        -0.1511
      4 C4          1.1518    3.0149    0.3248 C.ar      1 <0>         0.0178
      5 C5          0.0372    3.8137    0.2038 C.ar      1 <0>        -0.7157
      6 C6         -1.2365    3.2552    0.1919 C.ar      1 <0>         0.2254
      7 C7         -1.3768    1.8767    0.2964 C.ar      1 <0>        -0.1692
      8 N1         -2.3556    4.0745    0.0732 N.pl3     1 <0>        -0.5682
      9 C8         -2.3294    5.3481   -0.3908 C.2       1 <0>         0.4848
     10 N2         -1.2955    6.1056   -0.4497 N.2       1 <0>        -0.9231
     11 S1          0.1879    5.5652    0.0580 S.o2      1 <0>         2.6234
     12 O1          0.3829    6.0720    1.3711 O.2       1 <0>        -0.9499
     13 O2          1.1008    5.8126   -1.0025 O.2       1 <0>        -0.9426
     14 C9         -3.6510    3.5225    0.4776 C.3       1 <0>         0.1370
     15 C10        -4.3706    2.9899   -0.7347 C.ar      1 <0>        -0.1560
     16 C11        -4.3854    1.6313   -0.9885 C.ar      1 <0>        -0.0752
     17 C12        -5.0458    1.1426   -2.1001 C.ar      1 <0>        -0.1231
     18 C13        -5.6926    2.0118   -2.9590 C.ar      1 <0>        -0.0777
     19 C14        -5.6796    3.3703   -2.7070 C.ar      1 <0>        -0.1452
     20 C15        -5.0220    3.8608   -1.5913 C.ar      1 <0>         0.1097
     21 F1         -5.0129    5.1884   -1.3411 F         1 <0>        -0.1314
     22 H1          0.5810   -0.8808    0.6353 H         1 <0>         0.0764
     23 H2         -0.9177   -0.8053   -0.3522 H         1 <0>         0.0806
     24 H3         -1.0111   -0.6520    1.4351 H         1 <0>         0.0811
     25 H4          1.8773    1.0128    0.5310 H         1 <0>         0.1395
     26 H5          2.1371    3.4572    0.3332 H         1 <0>         0.1417
     27 H6         -2.3603    1.4306    0.2824 H         1 <0>         0.1407
     28 H7         -3.3049    5.7211   -0.7363 H         1 <0>         0.2125
     29 H8         -3.4930    2.7065    1.1981 H         1 <0>         0.1192
     30 H9         -4.2564    4.3128    0.9456 H         1 <0>         0.1167
     31 H10        -3.8805    0.9514   -0.3183 H         1 <0>         0.1362
     32 H11        -5.0568    0.0808   -2.2977 H         1 <0>         0.1360
     33 H12        -6.2086    1.6288   -3.8270 H         1 <0>         0.1389
     34 H13        -6.1853    4.0491   -3.3778 H         1 <0>         0.1431
@<TRIPOS>BOND
     1    1    2 1
     2    1   22 1
     3    1   23 1
     4    1   24 1
     5    2    7 ar
     6    2    3 ar
     7    3    4 ar
     8    3   25 1
     9    4    5 ar
    10    4   26 1
    11    5   11 1
    12    5    6 ar
    13    6    7 ar
    14    6    8 1
    15    7   27 1
    16    8    9 1
    17    8   14 1
    18    9   10 2
    19    9   28 1
    20   10   11 1
    21   11   12 2
    22   11   13 2
    23   14   15 1
    24   14   29 1
    25   14   30 1
    26   15   20 ar
    27   15   16 ar
    28   16   17 ar
    29   16   31 1
    30   17   18 ar
    31   17   32 1
    32   18   19 ar
    33   18   33 1
    34   19   20 ar
    35   19   34 1
    36   20   21 1
@<TRIPOS>MOLECULE
ZINC43678681
   25    27     0     0     0
SMALL
USER_CHARGES

@<TRIPOS>ATOM
      1 C1         -0.0163    1.3510    0.0095 C.2       1 <0>        -0.0401
      2 C2          1.1968    2.0696    0.0017 C.2       1 <0>        -0.1807
      3 C3          2.3754    1.4227   -0.0134 C.2       1 <0>         0.1273
      4 N1          2.4214    0.0488   -0.0217 N.am      1 <0>        -0.4809
      5 C4          1.2476   -0.6816   -0.0140 C.2       1 <0>         0.2989
      6 C5          0.0021   -0.0041    0.0020 C.2       1 <0>        -0.1245
      7 N2          1.5531   -1.9582   -0.0243 N.2       1 <0>        -0.2836
      8 N3          2.9505   -2.0662   -0.0391 N.am      1 <0>        -0.4332
      9 C6          3.4558   -0.8157   -0.0371 C.2       1 <0>         0.6446
     10 O1          4.6382   -0.5196   -0.0478 O.2       1 <0>        -0.5320
     11 C7          3.7221   -3.3115   -0.0536 C.3       1 <0>         0.2464
     12 C8          4.0006   -3.7463    1.3622 C.2       1 <0>        -0.1767
     13 C9          3.2662   -4.5516    2.1676 C.2       1 <0>        -0.1219
     14 C10         3.7213   -4.8169    3.4458 C.2       1 <0>        -0.1170
     15 C11         4.8896   -4.2631    3.8555 C.2       1 <0>        -0.1726
     16 S1          5.3876   -3.3405    2.4105 S.3       1 <0>         0.1288
     17 Br1         5.7672   -4.4309    5.5221 Br        1 <0>         0.0428
     18 H1         -0.9581    1.8794    0.0258 H         1 <0>         0.1508
     19 H2          1.1792    3.1494    0.0077 H         1 <0>         0.1579
     20 H3          3.2954    1.9882   -0.0195 H         1 <0>         0.1710
     21 H4         -0.9225   -0.5622    0.0082 H         1 <0>         0.1593
     22 H5          3.1520   -4.0863   -0.5661 H         1 <0>         0.1276
     23 H6          4.6650   -3.1486   -0.5758 H         1 <0>         0.1167
     24 H7          2.3388   -4.9794    1.8162 H         1 <0>         0.1464
     25 H8          3.1550   -5.4551    4.1081 H         1 <0>         0.1448
@<TRIPOS>BOND
     1    1    6 2
     2    1    2 1
     3    1   18 1
     4    2    3 2
     5    2   19 1
     6    3    4 1
     7    3   20 1
     8    4    9 am
     9    4    5 1
    10    5    6 1
    11    5    7 2
    12    6   21 1
    13    7    8 1
    14    8    9 am
    15    8   11 1
    16    9   10 2
    17   11   12 1
    18   11   22 1
    19   11   23 1
    20   12   16 1
    21   12   13 2
    22   13   14 1
    23   13   24 1
    24   14   15 2
    25   14   25 1
    26   15   16 1
    27   15   17 1
@<TRIPOS>MOLECULE
ZINC57423960
   34    36     0     0     0
SMALL
USER_CHARGES

@<TRIPOS>ATOM
      1 C1         -0.0167    1.3792    0.0096 C.ar      1 <0>        -0.1358
      2 C2          1.1668    2.0884    0.0021 C.ar      1 <0>        -0.0116
      3 C3          2.3851    1.4068   -0.0131 C.ar      1 <0>        -0.0425
      4 C4          2.3967    0.0103   -0.0207 C.ar      1 <0>         0.0325
      5 C5          1.2061   -0.6860   -0.0130 C.ar      1 <0>        -0.7018
      6 C6          0.0021   -0.0041    0.0020 C.ar      1 <0>         0.0118
      7 S1          1.2183   -2.4480   -0.0226 S.o2      1 <0>         2.6754
      8 O1         -0.0294   -2.8598   -0.5637 O.2       1 <0>        -0.9436
      9 O2          2.4611   -2.8425   -0.5874 O.2       1 <0>        -0.9226
     10 O3          1.2353   -2.9057    1.4289 O.3       1 <0>        -0.6528
     11 C7          0.0411   -2.7739    2.0640 C.ar      1 <0>         0.0576
     12 C8         -0.2662   -1.5962    2.7302 C.ar      1 <0>        -0.1197
     13 C9         -1.4802   -1.4671    3.3737 C.ar      1 <0>        -0.0905
     14 C10        -2.3937   -2.5086    3.3580 C.ar      1 <0>        -0.0741
     15 C11        -2.0897   -3.6831    2.6949 C.ar      1 <0>        -0.0793
     16 C12        -0.8755   -3.8133    2.0433 C.ar      1 <0>        -0.0774
     17 C13        -3.2416   -4.6567    2.8246 C.3       1 <0>        -0.0860
     18 C14        -4.0919   -4.1227    3.9968 C.3       1 <0>        -0.1217
     19 C15        -3.7708   -2.6132    3.9782 C.3       1 <0>        -0.0872
     20 C16         3.6173    2.1363   -0.0214 C.1       1 <0>         0.2455
     21 N1          4.5948    2.7150   -0.0280 N.1       1 <0>        -0.3958
     22 H1         -0.9598    1.9051    0.0260 H         1 <0>         0.1488
     23 H2          1.1507    3.1682    0.0077 H         1 <0>         0.1454
     24 H3          3.3356   -0.5231   -0.0328 H         1 <0>         0.1536
     25 H4         -0.9272   -0.5543    0.0079 H         1 <0>         0.1502
     26 H5          0.4434   -0.7823    2.7455 H         1 <0>         0.1418
     27 H6         -1.7191   -0.5503    3.8922 H         1 <0>         0.1387
     28 H7         -0.6399   -4.7288    1.5212 H         1 <0>         0.1400
     29 H8         -3.8295   -4.6715    1.9069 H         1 <0>         0.0897
     30 H9         -2.8689   -5.6555    3.0521 H         1 <0>         0.0822
     31 H10        -5.1528   -4.2954    3.8160 H         1 <0>         0.0826
     32 H11        -3.7798   -4.5737    4.9388 H         1 <0>         0.0760
     33 H12        -3.7595   -2.2164    4.9934 H         1 <0>         0.0821
     34 H13        -4.5009   -2.0787    3.3705 H         1 <0>         0.0887
@<TRIPOS>BOND
     1    1    6 ar
     2    1    2 ar
     3    1   22 1
     4    2    3 ar
     5    2   23 1
     6    3    4 ar
     7    3   20 1
     8    4    5 ar
     9    4   24 1
    10    5    6 ar
    11    5    7 1
    12    6   25 1
    13    7    8 2
    14    7    9 2
    15    7   10 1
    16   10   11 1
    17   11   16 ar
    18   11   12 ar
    19   12   13 ar
    20   12   26 1
    21   13   14 ar
    22   13   27 1
    23   14   19 1
    24   14   15 ar
    25   15   16 ar
    26   15   17 1
    27   16   28 1
    28   17   18 1
    29   17   29 1
    30   17   30 1
    31   18   19 1
    32   18   31 1
    33   18   32 1
    34   19   33 1
    35   19   34 1
    36   20   21 3
@<TRIPOS>MOLECULE
ZINC03052621
   35    38     0     0     0
SMALL
USER_CHARGES
2-(5-bromo-3-pyridyl)-4-(1-naphthylmethylene)oxazol-5-one
@<TRIPOS>ATOM
      1 C1         10.5787    0.2984    2.1196 C.ar      1 <0>        -0.1225
      2 C2          9.7139    1.3874    2.0517 C.ar      1 <0>        -0.0964
      3 C3          8.5261    1.2981    1.3868 C.ar      1 <0>        -0.1216
      4 C4          8.1710    0.0977    0.7642 C.ar      1 <0>        -0.0124
      5 C5          9.0478   -1.0122    0.8306 C.ar      1 <0>        -0.0668
      6 C6         10.2636   -0.8854    1.5244 C.ar      1 <0>        -0.0924
      7 C7          8.6867   -2.2171    0.2039 C.ar      1 <0>        -0.0616
      8 C8          7.5049   -2.3279   -0.4655 C.ar      1 <0>        -0.1318
      9 C9          6.6114   -1.2723   -0.5535 C.ar      1 <0>        -0.0177
     10 C10         6.9058   -0.0437    0.0398 C.ar      1 <0>        -0.1219
     11 C11         5.9976    1.0415   -0.0516 C.2       1 <0>         0.1045
     12 C12         4.6418    0.8219    0.0953 C.2       1 <0>        -0.1078
     13 C13         3.9790   -0.4325    0.4963 C.2       1 <0>         0.4786
     14 O1          4.5085   -1.4936    0.7684 O.2       1 <0>        -0.4100
     15 O2          2.6581   -0.1511    0.4973 O.3       1 <0>        -0.2893
     16 C14         2.4915    1.1364    0.1382 C.2       1 <0>         0.3323
     17 N1          3.6339    1.7178   -0.1047 N.2       1 <0>        -0.4541
     18 C15         1.1794    1.8045    0.0272 C.ar      1 <0>        -0.0859
     19 C16        -0.0023    1.1038    0.3015 C.ar      1 <0>        -0.0049
     20 C17        -1.2064    1.7748    0.1764 C.ar      1 <0>        -0.1538
     21 C18        -1.2036    3.1071   -0.2004 C.ar      1 <0>         0.1607
     22 N2         -0.0747    3.7414   -0.4524 N.ar      1 <0>        -0.4690
     23 C19         1.0953    3.1454   -0.3533 C.ar      1 <0>         0.1767
     24 Br1        -2.8376    0.8834    0.5240 Br        1 <0>        -0.0140
     25 H1         11.5136    0.3939    2.6520 H         1 <0>         0.1275
     26 H2          9.9870    2.3153    2.5322 H         1 <0>         0.1282
     27 H3          7.8635    2.1498    1.3418 H         1 <0>         0.1284
     28 H4         10.9442   -1.7218    1.5849 H         1 <0>         0.1318
     29 H5          9.3537   -3.0651    0.2532 H         1 <0>         0.1332
     30 H6          7.2552   -3.2670   -0.9370 H         1 <0>         0.1311
     31 H7          5.6822   -1.3998   -1.0891 H         1 <0>         0.1253
     32 H8          6.3660    2.0399   -0.2362 H         1 <0>         0.1580
     33 H9          0.0253    0.0658    0.5984 H         1 <0>         0.1583
     34 H10        -2.1414    3.6346   -0.2941 H         1 <0>         0.1759
     35 H11         1.9978    3.6985   -0.5679 H         1 <0>         0.1832
@<TRIPOS>BOND
     1    1    6 ar
     2    1    2 ar
     3    1   25 1
     4    2    3 ar
     5    2   26 1
     6    3    4 ar
     7    3   27 1
     8    4   10 ar
     9    4    5 ar
    10    5    6 ar
    11    5    7 ar
    12    6   28 1
    13    7    8 ar
    14    7   29 1
    15    8    9 ar
    16    8   30 1
    17    9   10 ar
    18    9   31 1
    19   10   11 1
    20   11   12 2
    21   11   32 1
    22   12   17 1
    23   12   13 1
    24   13   14 2
    25   13   15 1
    26   15   16 1
    27   16   17 2
    28   16   18 1
    29   18   23 ar
    30   18   19 ar
    31   19   20 ar
    32   19   33 1
    33   20   21 ar
    34   20   24 1
    35   21   22 ar
    36   21   34 1
    37   22   23 ar
    38   23   35 1
@<TRIPOS>MOLECULE
ZINC05186967
   34    37     0     0     0
SMALL
USER_CHARGES
2-benzo[1,3]dioxol-5-yl-3-(4-bromophenyl)-thiazolidin-4-one
@<TRIPOS>ATOM
      1 C1          1.7349   -2.6210   -0.0748 C.ar      1 <0>        -0.1136
      2 C2          2.0733   -3.8801   -0.5305 C.ar      1 <0>        -0.0743
      3 C3          2.3988   -4.0711   -1.8616 C.ar      1 <0>        -0.0897
      4 C4          2.3804   -3.0031   -2.7411 C.ar      1 <0>        -0.0734
      5 C5          2.0376   -1.7429   -2.2919 C.ar      1 <0>        -0.1009
      6 C6          1.7109   -1.5482   -0.9564 C.ar      1 <0>         0.1568
      7 N1          1.3636   -0.2722   -0.4984 N.am      1 <0>        -0.5662
      8 C7          0.0712   -0.0479    0.1764 C.3       1 <0>         0.2353
      9 H1          0.0968   -0.4113    1.2037 H         1 <0>         0.1295
     10 S1         -0.0481    1.7922    0.1272 S.3       1 <0>        -0.2271
     11 C8          1.7485    2.1091   -0.1504 C.3       1 <0>        -0.0926
     12 C9          2.1929    0.7497   -0.6665 C.2       1 <0>         0.5154
     13 O1          3.2663    0.6049   -1.2124 O.2       1 <0>        -0.4933
     14 C10        -1.0583   -0.6844   -0.5918 C.ar      1 <0>        -0.0920
     15 C11        -0.9212   -0.9263   -1.9460 C.ar      1 <0>        -0.0754
     16 C12        -1.9528   -1.5142   -2.6541 C.ar      1 <0>        -0.0969
     17 C13        -3.1312   -1.8533   -2.0094 C.ar      1 <0>         0.0512
     18 C14        -3.2714   -1.6047   -0.6463 C.ar      1 <0>         0.0355
     19 C15        -2.2314   -1.0198    0.0580 C.ar      1 <0>        -0.0736
     20 O2         -4.5091   -2.0234   -0.2514 O.3       1 <0>        -0.3048
     21 C16        -4.9692   -2.9014   -1.2957 C.3       1 <0>         0.2125
     22 O3         -4.2812   -2.4277   -2.4686 O.3       1 <0>        -0.3050
     23 Br1         2.8693   -5.7950   -2.4802 Br        1 <0>        -0.0417
     24 H2          1.4852   -2.4716    0.9652 H         1 <0>         0.1358
     25 H3          2.0885   -4.7154    0.1539 H         1 <0>         0.1405
     26 H4          2.6346   -3.1551   -3.7797 H         1 <0>         0.1410
     27 H5          2.0233   -0.9096   -2.9789 H         1 <0>         0.1357
     28 H6          1.9007    2.8848   -0.9008 H         1 <0>         0.1468
     29 H7          2.2532    2.3610    0.7822 H         1 <0>         0.1382
     30 H8         -0.0049   -0.6588   -2.4511 H         1 <0>         0.1388
     31 H9         -1.8413   -1.7058   -3.7111 H         1 <0>         0.1413
     32 H10        -2.3372   -0.8262    1.1152 H         1 <0>         0.1419
     33 H11        -4.6912   -3.9329   -1.0791 H         1 <0>         0.0883
     34 H12        -6.0481   -2.8131   -1.4227 H         1 <0>         0.1357
@<TRIPOS>BOND
     1    1    6 ar
     2    1    2 ar
     3    1   24 1
     4    2    3 ar
     5    2   25 1
     6    3    4 ar
     7    3   23 1
     8    4    5 ar
     9    4   26 1
    10    5    6 ar
    11    5   27 1
    12    6    7 1
    13    7   12 am
    14    7    8 1
    15    8    9 1
    16    8   10 1
    17    8   14 1
    18   10   11 1
    19   11   12 1
    20   11   28 1
    21   11   29 1
    22   12   13 2
    23   14   19 ar
    24   14   15 ar
    25   15   16 ar
    26   15   30 1
    27   16   17 ar
    28   16   31 1
    29   17   22 1
    30   17   18 ar
    31   18   19 ar
    32   18   20 1
    33   19   32 1
    34   20   21 1
    35   21   22 1
    36   21   33 1
    37   21   34 1
@<TRIPOS>MOLECULE
ZINC09303761
   39    42     0     0     0
SMALL
USER_CHARGES
1-carbazol-9-yl-2-[(5-methyl-1,3,4-thiadiazol-2-yl)sulfanyl]propan-1-one
@<TRIPOS>ATOM
      1 C1         -0.5902    0.8224   -7.4373 C.3       1 <0>        -0.0634
      2 C2         -0.7519    0.3764   -6.0070 C.2       1 <0>         0.0809
      3 N1         -1.6255   -0.4525   -5.4724 N.2       1 <0>        -0.2749
      4 N2         -1.6245   -0.7284   -4.2417 N.2       1 <0>        -0.2783
      5 C3         -0.7467   -0.1893   -3.4051 C.2       1 <0>         0.0103
      6 S1          0.1875    0.8226   -4.5495 S.3       1 <0>         0.0256
      7 S2         -0.5515   -0.4115   -1.6681 S.3       1 <0>         0.1254
      8 C4         -1.8977   -1.5782   -1.3472 C.3       1 <0>        -0.1363
      9 H1         -2.8355   -1.1604   -1.7133 H         1 <0>         0.1375
     10 C5         -1.6116   -2.8975   -2.0673 C.3       1 <0>        -0.1461
     11 C6         -2.0035   -1.8276    0.1352 C.2       1 <0>         0.5840
     12 O1         -1.0280   -1.6964    0.8433 O.2       1 <0>        -0.4102
     13 N3         -3.1826   -2.1966    0.6740 N.am      1 <0>        -0.5261
     14 C7         -4.1846   -1.3207    1.0711 C.ar      1 <0>         0.1409
     15 C8         -4.2809    0.0657    1.0425 C.ar      1 <0>        -0.1390
     16 C9         -5.4179    0.6889    1.5126 C.ar      1 <0>        -0.0781
     17 C10        -6.4723   -0.0560    2.0160 C.ar      1 <0>        -0.1384
     18 C11        -6.3975   -1.4327    2.0453 C.ar      1 <0>        -0.0604
     19 C12        -5.2532   -2.0732    1.5780 C.ar      1 <0>        -0.0875
     20 C13        -4.8534   -3.4909    1.4821 C.ar      1 <0>        -0.0887
     21 C14        -3.5700   -3.5077    0.9184 C.ar      1 <0>         0.1432
     22 C15        -2.9343   -4.7259    0.7079 C.ar      1 <0>        -0.1384
     23 C16        -3.5652   -5.9029    1.0529 C.ar      1 <0>        -0.0783
     24 C17        -4.8339   -5.8847    1.6100 C.ar      1 <0>        -0.1387
     25 C18        -5.4799   -4.6857    1.8258 C.ar      1 <0>        -0.0602
     26 H2          0.0892    0.1449   -7.9546 H         1 <0>         0.1001
     27 H3         -1.5608    0.8122   -7.9331 H         1 <0>         0.1040
     28 H4         -0.1818    1.8328   -7.4588 H         1 <0>         0.0939
     29 H5         -0.6737   -3.3152   -1.7012 H         1 <0>         0.0765
     30 H6         -2.4222   -3.6000   -1.8740 H         1 <0>         0.0807
     31 H7         -1.5350   -2.7170   -3.1395 H         1 <0>         0.0962
     32 H8         -3.4649    0.6553    0.6514 H         1 <0>         0.1235
     33 H9         -5.4872    1.7664    1.4879 H         1 <0>         0.1346
     34 H10        -7.3578    0.4428    2.3812 H         1 <0>         0.1327
     35 H11        -7.2196   -2.0116    2.4396 H         1 <0>         0.1316
     36 H12        -1.9455   -4.7507    0.2743 H         1 <0>         0.1232
     37 H13        -3.0664   -6.8464    0.8873 H         1 <0>         0.1344
     38 H14        -5.3184   -6.8127    1.8757 H         1 <0>         0.1326
     39 H15        -6.4688   -4.6735    2.2598 H         1 <0>         0.1314
@<TRIPOS>BOND
     1    1    2 1
     2    1   26 1
     3    1   27 1
     4    1   28 1
     5    2    6 1
     6    2    3 2
     7    3    4 1
     8    4    5 2
     9    5    6 1
    10    5    7 1
    11    7    8 1
    12    8    9 1
    13    8   10 1
    14    8   11 1
    15   10   29 1
    16   10   30 1
    17   10   31 1
    18   11   12 2
    19   11   13 am
    20   13   21 1
    21   13   14 1
    22   14   19 ar
    23   14   15 ar
    24   15   16 ar
    25   15   32 1
    26   16   17 ar
    27   16   33 1
    28   17   18 ar
    29   17   34 1
    30   18   19 ar
    31   18   35 1
    32   19   20 1
    33   20   25 ar
    34   20   21 ar
    35   21   22 ar
    36   22   23 ar
    37   22   36 1
    38   23   24 ar
    39   23   37 1
    40   24   25 ar
    41   24   38 1
    42   25   39 1
@<TRIPOS>MOLECULE
ZINC35892903
   49    52     0     0     0
SMALL
USER_CHARGES

@<TRIPOS>ATOM
      1 C1         -0.7183   -3.6500    0.6307 C.3       1 <0>        -0.1436
      2 C2         -0.3313   -3.3985    2.0895 C.3       1 <0>        -0.0530
      3 C3          0.5623   -2.1877    2.1705 C.ar      1 <0>         0.3542
      4 N1          1.8706   -2.3425    2.0707 N.ar      1 <0>        -0.5340
      5 C4          2.7079   -1.3201    2.1339 C.ar      1 <0>         0.4823
      6 C5          2.1884   -0.0085    2.3152 C.ar      1 <0>        -0.1899
      7 C6          2.8860    1.2614    2.4148 C.2       1 <0>        -0.0880
      8 C7          2.1766    2.3866    2.5867 C.2       1 <0>        -0.1339
      9 S1          0.4891    1.8127    2.6280 S.3       1 <0>         0.0993
     10 C8          0.7824    0.0772    2.4134 C.ar      1 <0>         0.1254
     11 N2          0.0210   -0.9964    2.3342 N.ar      1 <0>        -0.4825
     12 C9          2.6849    3.7996    2.7144 C.3       1 <0>        -0.0720
     13 C10         4.3895    1.3142    2.3267 C.3       1 <0>        -0.1111
     14 N3          4.0716   -1.5242    2.0254 N.pl3     1 <0>        -0.6560
     15 C11         4.8663   -1.9080    3.2006 C.3       1 <0>         0.1317
     16 C12         5.6232   -3.2025    2.8789 C.3       1 <0>         0.1069
     17 N4          6.3034   -3.0399    1.5863 N.pl3     1 <0>        -0.6256
     18 C13         5.5087   -2.6561    0.4111 C.3       1 <0>         0.1062
     19 C14         4.7509   -1.3670    0.7317 C.3       1 <0>         0.1318
     20 C15         7.6805   -3.2460    1.4767 C.ar      1 <0>         0.2205
     21 C16         8.4005   -3.7296    2.5618 C.ar      1 <0>        -0.2008
     22 C17         9.7619   -3.9327    2.4500 C.ar      1 <0>        -0.0705
     23 C18        10.4085   -3.6548    1.2596 C.ar      1 <0>        -0.1809
     24 C19         9.6948   -3.1733    0.1774 C.ar      1 <0>        -0.0706
     25 C20         8.3322   -2.9734    0.2807 C.ar      1 <0>        -0.2012
     26 H1          0.1818   -3.8226    0.0406 H         1 <0>         0.0578
     27 H2         -1.3646   -4.5257    0.5721 H         1 <0>         0.0709
     28 H3         -1.2477   -2.7809    0.2402 H         1 <0>         0.0587
     29 H4         -1.2314   -3.2259    2.6796 H         1 <0>         0.0941
     30 H5          0.1981   -4.2676    2.4800 H         1 <0>         0.0942
     31 H6          2.7433    4.2554    1.7260 H         1 <0>         0.0842
     32 H7          2.0035    4.3756    3.3405 H         1 <0>         0.0782
     33 H8          3.6755    3.7897    3.1690 H         1 <0>         0.0856
     34 H9          4.6861    1.5242    1.2990 H         1 <0>         0.0695
     35 H10         4.7645    2.1012    2.9810 H         1 <0>         0.0669
     36 H11         4.8055    0.3554    2.6362 H         1 <0>         0.0858
     37 H12         5.5782   -1.1166    3.4351 H         1 <0>         0.0684
     38 H13         4.2051   -2.0726    4.0514 H         1 <0>         0.0787
     39 H14         6.3600   -3.3988    3.6578 H         1 <0>         0.0910
     40 H15         4.9194   -4.0328    2.8200 H         1 <0>         0.0685
     41 H16         6.1699   -2.4915   -0.4397 H         1 <0>         0.0921
     42 H17         4.7968   -3.4475    0.1765 H         1 <0>         0.0668
     43 H18         4.0135   -1.1745   -0.0476 H         1 <0>         0.0770
     44 H19         5.4544   -0.5363    0.7864 H         1 <0>         0.0688
     45 H20         7.8962   -3.9461    3.4920 H         1 <0>         0.1208
     46 H21        10.3223   -4.3086    3.2932 H         1 <0>         0.1198
     47 H22        11.4734   -3.8139    1.1750 H         1 <0>         0.1172
     48 H23        10.2029   -2.9574   -0.7508 H         1 <0>         0.1197
     49 H24         7.7747   -2.6016   -0.5663 H         1 <0>         0.1207
@<TRIPOS>BOND
     1    1    2 1
     2    1   26 1
     3    1   27 1
     4    1   28 1
     5    2    3 1
     6    2   29 1
     7    2   30 1
     8    3   11 ar
     9    3    4 ar
    10    4    5 ar
    11    5    6 ar
    12    5   14 1
    13    6   10 ar
    14    6    7 1
    15    7    8 2
    16    7   13 1
    17    8    9 1
    18    8   12 1
    19    9   10 1
    20   10   11 ar
    21   12   31 1
    22   12   32 1
    23   12   33 1
    24   13   34 1
    25   13   35 1
    26   13   36 1
    27   14   19 1
    28   14   15 1
    29   15   16 1
    30   15   37 1
    31   15   38 1
    32   16   17 1
    33   16   39 1
    34   16   40 1
    35   17   18 1
    36   17   20 1
    37   18   19 1
    38   18   41 1
    39   18   42 1
    40   19   43 1
    41   19   44 1
    42   20   25 ar
    43   20   21 ar
    44   21   22 ar
    45   21   45 1
    46   22   23 ar
    47   22   46 1
    48   23   24 ar
    49   23   47 1
    50   24   25 ar
    51   24   48 1
    52   25   49 1
@<TRIPOS>MOLECULE
ZINC41657830
   46    49     0     0     0
SMALL
USER_CHARGES

@<TRIPOS>ATOM
      1 C1          0.0688    1.4796    0.1529 C.3       1 <0>        -0.1491
      2 C2          0.0776   -0.0503    0.1384 C.3       1 <0>        -0.0958
      3 C3          0.7929   -0.5680    1.3879 C.3       1 <0>        -0.1417
      4 C4         -1.3619   -0.5685    0.1233 C.3       1 <0>         0.0623
      5 N1         -1.3543   -2.0313   -0.0113 N.3       1 <0>        -0.5538
      6 C5         -2.7021   -2.5850    0.1815 C.3       1 <0>         0.0991
      7 C6         -2.6945   -4.0573   -0.1419 C.ar      1 <0>        -0.1838
      8 C7         -1.6633   -4.6181   -0.8761 C.ar      1 <0>         0.2122
      9 C8         -1.6688   -5.9811   -1.1723 C.ar      1 <0>        -0.1801
     10 C9         -2.6903   -6.7769   -0.7393 C.ar      1 <0>         0.0263
     11 C10        -3.7343   -6.2244    0.0028 C.ar      1 <0>        -0.2934
     12 C11        -3.7421   -4.8540    0.3069 C.ar      1 <0>         0.1752
     13 O1         -4.8443   -4.5531    1.0279 O.3       1 <0>        -0.2076
     14 C12        -5.6153   -5.6439    1.2479 C.2       1 <0>        -0.0290
     15 C13        -6.7835   -5.6739    1.9357 C.2       1 <0>        -0.0237
     16 C14        -7.2640   -4.4657    2.6214 C.ar      1 <0>        -0.0501
     17 C15        -6.5914   -3.2493    2.4572 C.ar      1 <0>        -0.1084
     18 C16        -7.0473   -2.1201    3.1031 C.ar      1 <0>        -0.0931
     19 C17        -8.1674   -2.1858    3.9135 C.ar      1 <0>        -0.1392
     20 C18        -8.8399   -3.3861    4.0826 C.ar      1 <0>         0.0967
     21 C19        -8.3992   -4.5246    3.4368 C.ar      1 <0>        -0.1284
     22 F1         -9.9321   -3.4410    4.8759 F         1 <0>        -0.1359
     23 C20        -4.9546   -6.7914    0.6048 C.2       1 <0>         0.4192
     24 O2         -5.3318   -7.9497    0.5763 O.2       1 <0>        -0.4165
     25 O3         -0.6293   -3.8542   -1.3168 O.3       1 <0>        -0.2916
     26 C21        -0.8219   -2.4378   -1.3222 C.3       1 <0>         0.2180
     27 H1          1.0943    1.8488    0.1637 H         1 <0>         0.0608
     28 H2         -0.4408    1.8484   -0.7373 H         1 <0>         0.0543
     29 H3         -0.4535    1.8315    1.0426 H         1 <0>         0.0575
     30 H4          0.5999   -0.4022   -0.7512 H         1 <0>         0.0704
     31 H5          0.7992   -1.6579    1.3776 H         1 <0>         0.0663
     32 H6          1.8184   -0.1988    1.3987 H         1 <0>         0.0512
     33 H7          0.2707   -0.2161    2.2776 H         1 <0>         0.0525
     34 H8         -1.8574   -0.2918    1.0538 H         1 <0>         0.0867
     35 H9         -1.8974   -0.1290   -0.7182 H         1 <0>         0.0437
     36 H10        -3.0082   -2.4425    1.2179 H         1 <0>         0.1006
     37 H11        -3.4028   -2.0722   -0.4774 H         1 <0>         0.0570
     38 H12        -0.8607   -6.4092   -1.7467 H         1 <0>         0.1485
     39 H13        -2.6902   -7.8317   -0.9712 H         1 <0>         0.1459
     40 H14        -7.3610   -6.5855    1.9797 H         1 <0>         0.1690
     41 H15        -5.7167   -3.1955    1.8259 H         1 <0>         0.1499
     42 H16        -6.5287   -1.1812    2.9768 H         1 <0>         0.1373
     43 H17        -8.5191   -1.2974    4.4170 H         1 <0>         0.1390
     44 H18        -8.9265   -5.4584    3.5646 H         1 <0>         0.1434
     45 H19        -1.5310   -2.1680   -2.1048 H         1 <0>         0.0483
     46 H20         0.1310   -1.9396   -1.5006 H         1 <0>         0.1300
@<TRIPOS>BOND
     1    1    2 1
     2    1   27 1
     3    1   28 1
     4    1   29 1
     5    2    3 1
     6    2    4 1
     7    2   30 1
     8    3   31 1
     9    3   32 1
    10    3   33 1
    11    4    5 1
    12    4   34 1
    13    4   35 1
    14    5   26 1
    15    5    6 1
    16    6    7 1
    17    6   36 1
    18    6   37 1
    19    7   12 ar
    20    7    8 ar
    21    8    9 ar
    22    8   25 1
    23    9   10 ar
    24    9   38 1
    25   10   11 ar
    26   10   39 1
    27   11   23 1
    28   11   12 ar
    29   12   13 1
    30   13   14 1
    31   14   15 2
    32   14   23 1
    33   15   16 1
    34   15   40 1
    35   16   21 ar
    36   16   17 ar
    37   17   18 ar
    38   17   41 1
    39   18   19 ar
    40   18   42 1
    41   19   20 ar
    42   19   43 1
    43   20   21 ar
    44   20   22 1
    45   21   44 1
    46   23   24 2
    47   25   26 1
    48   26   45 1
    49   26   46 1
@<TRIPOS>MOLECULE
ZINC04082630
   72    76     0     0     0
SMALL
USER_CHARGES
(3,4-dimethoxyphenyl)-(3-methoxy-4-propoxy-phenyl)-BLAHone
@<TRIPOS>ATOM
      1 C1         -2.9645    0.6948   -7.5640 C.3       1 <0>        -0.1497
      2 C2         -1.6724   -0.0792   -7.2949 C.3       1 <0>        -0.1233
      3 C3         -0.9949    0.4793   -6.0419 C.3       1 <0>         0.0590
      4 O1          0.2119   -0.2436   -5.7906 O.3       1 <0>        -0.3060
      5 C4          0.9406    0.1300   -4.7048 C.ar      1 <0>         0.1020
      6 C5          0.5035    1.1693   -3.8993 C.ar      1 <0>        -0.1763
      7 C6          1.2457    1.5481   -2.7963 C.ar      1 <0>        -0.1006
      8 C7          2.4247    0.8923   -2.4942 C.ar      1 <0>        -0.0838
      9 C8          2.8691   -0.1420   -3.2966 C.ar      1 <0>        -0.1398
     10 C9          2.1270   -0.5304   -4.4005 C.ar      1 <0>         0.0945
     11 O2          2.5602   -1.5510   -5.1880 O.3       1 <0>        -0.3079
     12 C10         3.7864   -2.1829   -4.8150 C.3       1 <0>         0.0269
     13 C11         3.2303    1.3099   -1.2910 C.3       1 <0>         0.2816
     14 H1          4.1047    0.6629   -1.2205 H         1 <0>         0.0932
     15 C12         3.7007    2.7299   -1.4990 C.2       1 <0>        -0.2935
     16 C13         3.2616    3.8112   -0.8340 C.2       1 <0>         0.2590
     17 C14         3.7995    5.1920   -1.1720 C.3       1 <0>        -0.1008
     18 C15         5.2616    5.0877   -1.6027 C.3       1 <0>        -0.0337
     19 H2          5.8539    4.6534   -0.7973 H         1 <0>         0.0901
     20 C16         5.3205    4.1815   -2.8380 C.3       1 <0>        -0.1498
     21 C17         4.6970    2.8621   -2.4950 C.2       1 <0>         0.3992
     22 O3          5.0610    1.8692   -3.0942 O.2       1 <0>        -0.4692
     23 C18         5.7929    6.4554   -1.9468 C.ar      1 <0>        -0.0777
     24 C19         5.1812    7.2044   -2.9349 C.ar      1 <0>        -0.1095
     25 C20         5.6642    8.4599   -3.2536 C.ar      1 <0>        -0.1689
     26 C21         6.7639    8.9700   -2.5825 C.ar      1 <0>         0.0999
     27 C22         7.3798    8.2159   -1.5883 C.ar      1 <0>         0.1025
     28 C23         6.8872    6.9606   -1.2698 C.ar      1 <0>        -0.1640
     29 O4          8.4595    8.7123   -0.9268 O.3       1 <0>        -0.3058
     30 C24         9.0404    7.8826    0.0813 C.3       1 <0>         0.0254
     31 O5          7.2400   10.2051   -2.8945 O.3       1 <0>        -0.3065
     32 C25         6.5575   10.9222   -3.9250 C.3       1 <0>         0.0256
     33 N1          2.3286    3.7911    0.1513 N.pl3     1 <0>        -0.6848
     34 C26         1.1198    3.1078    0.0842 C.ar      1 <0>         0.1133
     35 C27        -0.1008    3.7603    0.1027 C.ar      1 <0>        -0.1146
     36 C28        -1.2684    3.0163    0.0926 C.ar      1 <0>        -0.1218
     37 C29        -1.2154    1.6347    0.0589 C.ar      1 <0>        -0.1065
     38 C30         0.0044    0.9810    0.0295 C.ar      1 <0>        -0.1221
     39 C31         1.1742    1.7234    0.0238 C.ar      1 <0>         0.1728
     40 N2          2.4214    1.1144   -0.1065 N.pl3     1 <0>        -0.7680
     41 H3         -3.6351    0.5901   -6.7111 H         1 <0>         0.0572
     42 H4         -2.7317    1.7487   -7.7160 H         1 <0>         0.0570
     43 H5         -3.4471    0.2969   -8.4567 H         1 <0>         0.0648
     44 H6         -1.0018    0.0255   -8.1478 H         1 <0>         0.0735
     45 H7         -1.9051   -1.1331   -7.1429 H         1 <0>         0.0735
     46 H8         -1.6655    0.3746   -5.1890 H         1 <0>         0.0595
     47 H9         -0.7622    1.5333   -6.1939 H         1 <0>         0.0589
     48 H10        -0.4168    1.6837   -4.1335 H         1 <0>         0.1291
     49 H11         0.9039    2.3583   -2.1693 H         1 <0>         0.1207
     50 H12         3.7925   -0.6499   -3.0608 H         1 <0>         0.1337
     51 H13         4.0162   -2.9776   -5.5247 H         1 <0>         0.0987
     52 H14         4.5906   -1.4471   -4.8205 H         1 <0>         0.0570
     53 H15         3.6878   -2.6058   -3.8152 H         1 <0>         0.0523
     54 H16         3.2123    5.6207   -1.9842 H         1 <0>         0.0978
     55 H17         3.7252    5.8345   -0.2946 H         1 <0>         0.0874
     56 H18         6.2740    4.0482   -3.1085 H         1 <0>         0.0879
     57 H19         4.7722    4.6426   -3.6594 H         1 <0>         0.1004
     58 H20         4.3240    6.8079   -3.4586 H         1 <0>         0.1270
     59 H21         5.1841    9.0432   -4.0253 H         1 <0>         0.1365
     60 H22         7.3607    6.3751   -0.4956 H         1 <0>         0.1361
     61 H23         8.2975    7.6712    0.8504 H         1 <0>         0.0550
     62 H24         9.3760    6.9473   -0.3667 H         1 <0>         0.0557
     63 H25         9.8909    8.3966    0.5292 H         1 <0>         0.1016
     64 H26         5.5179   11.0738   -3.6348 H         1 <0>         0.0553
     65 H27         7.0379   11.8892   -4.0740 H         1 <0>         0.1016
     66 H28         6.5963   10.3505   -4.8523 H         1 <0>         0.0556
     67 H29         2.5189    4.2899    0.9612 H         1 <0>         0.4059
     68 H30        -0.1419    4.8393    0.1251 H         1 <0>         0.1265
     69 H31        -2.2251    3.5172    0.1071 H         1 <0>         0.1260
     70 H32        -2.1312    1.0623    0.0592 H         1 <0>         0.1242
     71 H33         0.0438   -0.0980    0.0067 H         1 <0>         0.1252
     72 H34         2.7533    0.5500    0.6093 H         1 <0>         0.3985
@<TRIPOS>BOND
     1    1    2 1
     2    1   41 1
     3    1   42 1
     4    1   43 1
     5    2    3 1
     6    2   44 1
     7    2   45 1
     8    3    4 1
     9    3   46 1
    10    3   47 1
    11    4    5 1
    12    5   10 ar
    13    5    6 ar
    14    6    7 ar
    15    6   48 1
    16    7    8 ar
    17    7   49 1
    18    8    9 ar
    19    8   13 1
    20    9   10 ar
    21    9   50 1
    22   10   11 1
    23   11   12 1
    24   12   51 1
    25   12   52 1
    26   12   53 1
    27   13   14 1
    28   13   40 1
    29   13   15 1
    30   15   21 1
    31   15   16 2
    32   16   17 1
    33   16   33 1
    34   17   18 1
    35   17   54 1
    36   17   55 1
    37   18   19 1
    38   18   20 1
    39   18   23 1
    40   20   21 1
    41   20   56 1
    42   20   57 1
    43   21   22 2
    44   23   28 ar
    45   23   24 ar
    46   24   25 ar
    47   24   58 1
    48   25   26 ar
    49   25   59 1
    50   26   27 ar
    51   26   31 1
    52   27   28 ar
    53   27   29 1
    54   28   60 1
    55   29   30 1
    56   30   61 1
    57   30   62 1
    58   30   63 1
    59   31   32 1
    60   32   64 1
    61   32   65 1
    62   32   66 1
    63   33   34 1
    64   33   67 1
    65   34   39 ar
    66   34   35 ar
    67   35   36 ar
    68   35   68 1
    69   36   37 ar
    70   36   69 1
    71   37   38 ar
    72   37   70 1
    73   38   39 ar
    74   38   71 1
    75   39   40 1
    76   40   72 1
@<TRIPOS>MOLECULE
ZINC09505324
   71    75     0     0     0
SMALL
USER_CHARGES
7-[4-(2,3-dimethylphenyl)piperazin-1-yl]carbonyl-3-(o-tolylmethylsulfanylmethyl)-3,4-dihydro-1H-quinoxalin-2-one
@<TRIPOS>ATOM
      1 C1         -1.1508    2.9289   -1.0807 C.3       1 <0>        -0.1237
      2 C2          0.1993    2.2594   -1.0887 C.ar      1 <0>        -0.0631
      3 C3          1.3308    2.9890   -1.4031 C.ar      1 <0>        -0.1221
      4 C4          2.5682    2.3734   -1.4170 C.ar      1 <0>        -0.1077
      5 C5          2.6747    1.0284   -1.1151 C.ar      1 <0>        -0.1264
      6 C6          1.5435    0.2991   -0.8008 C.ar      1 <0>        -0.0958
      7 C7          0.3056    0.9147   -0.7873 C.ar      1 <0>        -0.0801
      8 C8         -0.9277    0.1195   -0.4446 C.3       1 <0>        -0.0481
      9 S1         -1.6323   -0.5866   -1.9597 S.3       1 <0>        -0.2154
     10 C9         -3.0890   -1.5003   -1.3819 C.3       1 <0>        -0.1138
     11 C10        -3.7872   -2.1547   -2.5757 C.3       1 <0>         0.1660
     12 H1         -3.0996   -2.8423   -3.0683 H         1 <0>         0.1323
     13 C11        -5.0006   -2.9112   -2.0978 C.2       1 <0>         0.5185
     14 O1         -4.8982   -4.0815   -1.7959 O.2       1 <0>        -0.5107
     15 N1         -6.1967   -2.2977   -2.0042 N.am      1 <0>        -0.6523
     16 C12        -6.3726   -0.9919   -2.4780 C.ar      1 <0>         0.0916
     17 C13        -7.5284   -0.2921   -2.1907 C.ar      1 <0>        -0.0905
     18 C14        -7.6790    1.0189   -2.6522 C.ar      1 <0>        -0.1397
     19 C15        -6.6627    1.6180   -3.4018 C.ar      1 <0>        -0.0465
     20 C16        -5.5128    0.9151   -3.6903 C.ar      1 <0>        -0.1425
     21 C17        -5.3644   -0.3873   -3.2357 C.ar      1 <0>         0.1937
     22 N2         -4.2105   -1.1173   -3.5269 N.pl3     1 <0>        -0.7346
     23 C18        -8.9116    1.7704   -2.3483 C.2       1 <0>         0.5672
     24 O2         -8.8410    2.8948   -1.8907 O.2       1 <0>        -0.5308
     25 N3        -10.1160    1.2107   -2.5778 N.am      1 <0>        -0.6091
     26 C19       -11.3560    1.9697   -2.3548 C.3       1 <0>         0.1181
     27 C20       -12.2199    1.8644   -3.6216 C.3       1 <0>         0.0476
     28 N4        -12.4118    0.4481   -3.9609 N.pl3     1 <0>        -0.4967
     29 C21       -11.1340   -0.1999   -4.2858 C.3       1 <0>         0.0451
     30 C22       -10.2254   -0.1772   -3.0520 C.3       1 <0>         0.1033
     31 C23       -13.3265    0.3033   -5.0064 C.ar      1 <0>         0.0849
     32 C24       -13.0309    0.8108   -6.2654 C.ar      1 <0>        -0.1492
     33 C25       -13.9373    0.6655   -7.2970 C.ar      1 <0>        -0.1129
     34 C26       -15.1385    0.0160   -7.0778 C.ar      1 <0>        -0.1172
     35 C27       -15.4359   -0.4904   -5.8260 C.ar      1 <0>        -0.0827
     36 C28       -14.5312   -0.3535   -4.7912 C.ar      1 <0>        -0.0587
     37 C29       -14.8536   -0.9111   -3.4288 C.3       1 <0>        -0.1073
     38 C30       -16.7460   -1.1974   -5.5919 C.3       1 <0>        -0.1168
     39 H2         -1.3552    3.3225   -0.0850 H         1 <0>         0.0708
     40 H3         -1.1557    3.7457   -1.8024 H         1 <0>         0.0697
     41 H4         -1.9181    2.2026   -1.3488 H         1 <0>         0.0747
     42 H5          1.2477    4.0397   -1.6385 H         1 <0>         0.1244
     43 H6          3.4521    2.9433   -1.6630 H         1 <0>         0.1239
     44 H7          3.6417    0.5476   -1.1253 H         1 <0>         0.1244
     45 H8          1.6266   -0.7516   -0.5653 H         1 <0>         0.1240
     46 H9         -0.6624   -0.6847    0.2418 H         1 <0>         0.0902
     47 H10        -1.6617    0.7727    0.0273 H         1 <0>         0.0927
     48 H11        -2.7783   -2.2704   -0.6759 H         1 <0>         0.0983
     49 H12        -3.7775   -0.8131   -0.8903 H         1 <0>         0.0873
     50 H13        -6.9451   -2.7670   -1.6036 H         1 <0>         0.4140
     51 H14        -8.3130   -0.7562   -1.6116 H         1 <0>         0.1360
     52 H15        -6.7783    2.6321   -3.7548 H         1 <0>         0.1350
     53 H16        -4.7275    1.3780   -4.2695 H         1 <0>         0.1402
     54 H17        -3.7023   -0.9447   -4.3349 H         1 <0>         0.4179
     55 H18       -11.8942    1.5501   -1.5049 H         1 <0>         0.0791
     56 H19       -11.1155    3.0148   -2.1598 H         1 <0>         0.0996
     57 H20       -11.7223    2.3722   -4.4478 H         1 <0>         0.0444
     58 H21       -13.1889    2.3293   -3.4396 H         1 <0>         0.0902
     59 H22       -10.6515    0.3366   -5.1027 H         1 <0>         0.0450
     60 H23       -11.3154   -1.2322   -4.5850 H         1 <0>         0.0897
     61 H24        -9.2371   -0.5522   -3.3182 H         1 <0>         0.0999
     62 H25       -10.6539   -0.7998   -2.2666 H         1 <0>         0.0802
     63 H26       -12.0934    1.3188   -6.4371 H         1 <0>         0.1162
     64 H27       -13.7081    1.0599   -8.2759 H         1 <0>         0.1212
     65 H28       -15.8456   -0.0963   -7.8863 H         1 <0>         0.1225
     66 H29       -15.3707   -0.1540   -2.8393 H         1 <0>         0.0674
     67 H30       -15.4932   -1.7871   -3.5367 H         1 <0>         0.0618
     68 H31       -13.9299   -1.1956   -2.9248 H         1 <0>         0.0771
     69 H32       -16.6255   -2.2618   -5.7934 H         1 <0>         0.0714
     70 H33       -17.0549   -1.0564   -4.5562 H         1 <0>         0.0702
     71 H34       -17.5051   -0.7854   -6.2568 H         1 <0>         0.0667
@<TRIPOS>BOND
     1    1    2 1
     2    1   39 1
     3    1   40 1
     4    1   41 1
     5    2    7 ar
     6    2    3 ar
     7    3    4 ar
     8    3   42 1
     9    4    5 ar
    10    4   43 1
    11    5    6 ar
    12    5   44 1
    13    6    7 ar
    14    6   45 1
    15    7    8 1
    16    8    9 1
    17    8   46 1
    18    8   47 1
    19    9   10 1
    20   10   11 1
    21   10   48 1
    22   10   49 1
    23   11   12 1
    24   11   22 1
    25   11   13 1
    26   13   14 2
    27   13   15 am
    28   15   16 1
    29   15   50 1
    30   16   21 ar
    31   16   17 ar
    32   17   18 ar
    33   17   51 1
    34   18   19 ar
    35   18   23 1
    36   19   20 ar
    37   19   52 1
    38   20   21 ar
    39   20   53 1
    40   21   22 1
    41   22   54 1
    42   23   24 2
    43   23   25 am
    44   25   30 1
    45   25   26 1
    46   26   27 1
    47   26   55 1
    48   26   56 1
    49   27   28 1
    50   27   57 1
    51   27   58 1
    52   28   29 1
    53   28   31 1
    54   29   30 1
    55   29   59 1
    56   29   60 1
    57   30   61 1
    58   30   62 1
    59   31   36 ar
    60   31   32 ar
    61   32   33 ar
    62   32   63 1
    63   33   34 ar
    64   33   64 1
    65   34   35 ar
    66   34   65 1
    67   35   36 ar
    68   35   38 1
    69   36   37 1
    70   37   66 1
    71   37   67 1
    72   37   68 1
    73   38   69 1
    74   38   70 1
    75   38   71 1
@<TRIPOS>MOLECULE
ZINC00739185
   70    73     0     0     0
SMALL
USER_CHARGES
2-[benzyl-[(2-fluorophenyl)carbamoyl]amino]-N-[5-tert-butyl-2-(m-tolyl)pyrazol-3-yl]acetamide
@<TRIPOS>ATOM
      1 C1          2.5210    1.0731   -0.0186 C.3       1 <0>        -0.1187
      2 C2          1.2077    1.8120    0.0024 C.ar      1 <0>        -0.0583
      3 C3          0.0184    1.1064    0.0235 C.ar      1 <0>        -0.1259
      4 C4         -1.1886    1.7807    0.0370 C.ar      1 <0>        -0.0864
      5 C5         -1.2097    3.1619    0.0410 C.ar      1 <0>        -0.1587
      6 C6         -0.0175    3.8729    0.0203 C.ar      1 <0>         0.1652
      7 C7          1.1931    3.1928    0.0010 C.ar      1 <0>        -0.1125
      8 N1         -0.0357    5.2744    0.0194 N.pl3     1 <0>        -0.3449
      9 C8         -0.9569    6.0642   -0.5968 C.2       1 <0>         0.3110
     10 C9         -0.6131    7.3585   -0.3529 C.2       1 <0>        -0.2572
     11 C10         0.5446    7.3547    0.4302 C.2       1 <0>         0.1095
     12 N2          0.8876    6.1124    0.6577 N.2       1 <0>        -0.2760
     13 C11         1.2716    8.5752    0.9331 C.3       1 <0>         0.0135
     14 C12         0.4855    9.1967    2.0894 C.3       1 <0>        -0.1361
     15 C13         2.6650    8.1739    1.4213 C.3       1 <0>        -0.1377
     16 C14         1.4023    9.5943   -0.2006 C.3       1 <0>        -0.1376
     17 N3         -2.0524    5.6277   -1.3409 N.am      1 <0>        -0.6526
     18 C15        -2.8888    6.5252   -1.8989 C.2       1 <0>         0.4945
     19 O1         -2.6885    7.7127   -1.7539 O.2       1 <0>        -0.4692
     20 C16        -4.0728    6.0534   -2.7031 C.3       1 <0>         0.1198
     21 N4         -4.8196    7.2123   -3.1985 N.am      1 <0>        -0.6000
     22 C17        -5.9036    7.7832   -2.3951 C.3       1 <0>         0.1464
     23 C18        -5.3473    8.8481   -1.4853 C.ar      1 <0>        -0.1063
     24 C19        -4.9041    8.5133   -0.2195 C.ar      1 <0>        -0.0823
     25 C20        -4.3894    9.4893    0.6132 C.ar      1 <0>        -0.1112
     26 C21        -4.3272   10.8018    0.1838 C.ar      1 <0>        -0.1083
     27 C22        -4.7757   11.1375   -1.0799 C.ar      1 <0>        -0.1161
     28 C23        -5.2856   10.1607   -1.9145 C.ar      1 <0>        -0.1014
     29 C24        -4.5096    7.7533   -4.3933 C.2       1 <0>         0.7201
     30 O2         -3.6100    7.2794   -5.0601 O.2       1 <0>        -0.5616
     31 N5         -5.1967    8.8194   -4.8491 N.am      1 <0>        -0.6763
     32 C25        -4.7997    9.4547   -6.0327 C.ar      1 <0>         0.1383
     33 C26        -3.4827    9.3657   -6.4620 C.ar      1 <0>        -0.1033
     34 C27        -3.0952    9.9888   -7.6325 C.ar      1 <0>        -0.1053
     35 C28        -4.0146   10.7102   -8.3716 C.ar      1 <0>        -0.1113
     36 C29        -5.3264   10.8062   -7.9454 C.ar      1 <0>        -0.1306
     37 C30        -5.7226   10.1806   -6.7773 C.ar      1 <0>         0.0609
     38 F1         -7.0042   10.2750   -6.3603 F         1 <0>        -0.1400
     39 H1          2.8203    0.8934   -1.0512 H         1 <0>         0.0760
     40 H2          3.2825    1.6714    0.4816 H         1 <0>         0.0706
     41 H3          2.4100    0.1201    0.4986 H         1 <0>         0.0723
     42 H4          0.0324    0.0265    0.0249 H         1 <0>         0.1309
     43 H5         -2.1157    1.2270    0.0486 H         1 <0>         0.1349
     44 H6         -2.1527    3.6881    0.0564 H         1 <0>         0.1241
     45 H7          2.1221    3.7433   -0.0155 H         1 <0>         0.1345
     46 H8         -1.1409    8.2333   -0.7030 H         1 <0>         0.1766
     47 H9          0.3924    8.4707    2.8970 H         1 <0>         0.0558
     48 H10         1.0113   10.0794    2.4531 H         1 <0>         0.0647
     49 H11        -0.5071    9.4826    1.7416 H         1 <0>         0.0602
     50 H12         3.2250    7.7311    0.5975 H         1 <0>         0.0564
     51 H13         3.1908    9.0566    1.7850 H         1 <0>         0.0599
     52 H14         2.5719    7.4479    2.2289 H         1 <0>         0.0609
     53 H15         0.4096    9.8802   -0.5484 H         1 <0>         0.0620
     54 H16         1.9281   10.4771    0.1632 H         1 <0>         0.0641
     55 H17         1.9623    9.1516   -1.0243 H         1 <0>         0.0564
     56 H18        -2.2126    4.6781   -1.4569 H         1 <0>         0.4106
     57 H19        -3.7247    5.4577   -3.5469 H         1 <0>         0.1246
     58 H20        -4.7215    5.4457   -2.0723 H         1 <0>         0.1172
     59 H21        -6.6517    8.2231   -3.0545 H         1 <0>         0.0862
     60 H22        -6.3642    6.9978   -1.7959 H         1 <0>         0.0986
     61 H23        -4.9565    7.4885    0.1175 H         1 <0>         0.1097
     62 H24        -4.0393    9.2270    1.6007 H         1 <0>         0.1181
     63 H25        -3.9286   11.5649    0.8358 H         1 <0>         0.1201
     64 H26        -4.7275   12.1630   -1.4152 H         1 <0>         0.1201
     65 H27        -5.6360   10.4230   -2.9019 H         1 <0>         0.1099
     66 H28        -5.9661    9.1468   -4.3575 H         1 <0>         0.4086
     67 H29        -2.7624    8.8066   -5.8833 H         1 <0>         0.1561
     68 H30        -2.0713    9.9160   -7.9685 H         1 <0>         0.1331
     69 H31        -3.7072   11.2002   -9.2836 H         1 <0>         0.1342
     70 H32        -6.0422   11.3705   -8.5249 H         1 <0>         0.1396
@<TRIPOS>BOND
     1    1    2 1
     2    1   39 1
     3    1   40 1
     4    1   41 1
     5    2    7 ar
     6    2    3 ar
     7    3    4 ar
     8    3   42 1
     9    4    5 ar
    10    4   43 1
    11    5    6 ar
    12    5   44 1
    13    6    7 ar
    14    6    8 1
    15    7   45 1
    16    8   12 1
    17    8    9 1
    18    9   10 2
    19    9   17 1
    20   10   11 1
    21   10   46 1
    22   11   12 2
    23   11   13 1
    24   13   14 1
    25   13   15 1
    26   13   16 1
    27   14   47 1
    28   14   48 1
    29   14   49 1
    30   15   50 1
    31   15   51 1
    32   15   52 1
    33   16   53 1
    34   16   54 1
    35   16   55 1
    36   17   18 am
    37   17   56 1
    38   18   19 2
    39   18   20 1
    40   20   21 1
    41   20   57 1
    42   20   58 1
    43   21   22 1
    44   21   29 am
    45   22   23 1
    46   22   59 1
    47   22   60 1
    48   23   28 ar
    49   23   24 ar
    50   24   25 ar
    51   24   61 1
    52   25   26 ar
    53   25   62 1
    54   26   27 ar
    55   26   63 1
    56   27   28 ar
    57   27   64 1
    58   28   65 1
    59   29   30 2
    60   29   31 am
    61   31   32 1
    62   31   66 1
    63   32   37 ar
    64   32   33 ar
    65   33   34 ar
    66   33   67 1
    67   34   35 ar
    68   34   68 1
    69   35   36 ar
    70   35   69 1
    71   36   37 ar
    72   36   70 1
    73   37   38 1
@<TRIPOS>MOLECULE
ZINC33690900
   59    62     0     0     0
SMALL
USER_CHARGES
(6R)-2-[(3-bromobenzoyl)amino]-6-tert-butyl-N-(2-furylmethyl)-4,5,6,7-tetrahydrobenzothiophene-3-carboxamide
@<TRIPOS>ATOM
      1 C1          8.4820    5.0079    7.0277 C.3       1 <0>        -0.1474
      2 C2          7.2734    5.1941    6.1082 C.3       1 <0>        -0.0622
      3 C3          7.4211    6.5035    5.3307 C.3       1 <0>        -0.1464
      4 C4          5.9957    5.2411    6.9484 C.3       1 <0>        -0.1494
      5 C5          7.1950    4.0237    5.1258 C.3       1 <0>        -0.0699
      6 H1          8.1133    4.0027    4.5205 H         1 <0>         0.0765
      7 C6          5.9760    4.1986    4.2153 C.3       1 <0>        -0.1171
      8 C7          6.0253    3.1768    3.0780 C.3       1 <0>        -0.0599
      9 C8          6.2138    1.7875    3.6748 C.2       1 <0>        -0.0631
     10 C9          6.6700    1.6284    4.9362 C.2       1 <0>        -0.2045
     11 S1          6.7216   -0.1243    5.1811 S.3       1 <0>         0.2237
     12 C10         6.1405   -0.6403    3.6325 C.2       1 <0>         0.0794
     13 C11         5.9275    0.5553    2.9603 C.2       1 <0>        -0.2237
     14 C12         5.4264    0.5741    1.5826 C.2       1 <0>         0.5838
     15 O1          6.2088    0.5608    0.6503 O.2       1 <0>        -0.5309
     16 N1          4.0996    0.6061    1.3485 N.am      1 <0>        -0.7334
     17 C13         3.5989    0.6249   -0.0282 C.3       1 <0>         0.2028
     18 C14         2.0923    0.6599   -0.0144 C.2       1 <0>        -0.0404
     19 C15         1.3313    1.7689   -0.0012 C.2       1 <0>        -0.1799
     20 C16        -0.0162    1.3409    0.0094 C.2       1 <0>        -0.2173
     21 C17         0.0021   -0.0041    0.0020 C.2       1 <0>        -0.0266
     22 O2          1.2819   -0.4111   -0.0124 O.3       1 <0>        -0.1718
     23 N2          5.9390   -1.9326    3.1755 N.am      1 <0>        -0.6293
     24 C18         6.2043   -2.9809    3.9800 C.2       1 <0>         0.5604
     25 O3          6.6202   -2.7925    5.1066 O.2       1 <0>        -0.4937
     26 C19         5.9894   -4.3595    3.4925 C.ar      1 <0>        -0.1283
     27 C20         6.2631   -5.4476    4.3235 C.ar      1 <0>        -0.0384
     28 C21         6.0601   -6.7319    3.8629 C.ar      1 <0>        -0.1158
     29 C22         5.5865   -6.9436    2.5801 C.ar      1 <0>        -0.0583
     30 C23         5.3130   -5.8696    1.7508 C.ar      1 <0>        -0.0981
     31 C24         5.5064   -4.5790    2.2016 C.ar      1 <0>        -0.0565
     32 Br1         4.6661   -6.1705   -0.0005 Br        1 <0>        -0.0333
     33 C25         7.0467    2.7079    5.9035 C.3       1 <0>        -0.0353
     34 H2          8.3758    4.0665    7.5867 H         1 <0>         0.0580
     35 H3          8.5385    5.8494    7.7339 H         1 <0>         0.0555
     36 H4          9.4006    4.9740    6.4235 H         1 <0>         0.0556
     37 H5          6.5522    6.6374    4.6696 H         1 <0>         0.0592
     38 H6          8.3397    6.4696    4.7265 H         1 <0>         0.0553
     39 H7          7.4776    7.3449    6.0370 H         1 <0>         0.0554
     40 H8          5.1268    5.3750    6.2872 H         1 <0>         0.0584
     41 H9          6.0521    6.0825    7.6547 H         1 <0>         0.0545
     42 H10         5.8896    4.2996    7.5073 H         1 <0>         0.0589
     43 H11         5.0568    4.0467    4.8001 H         1 <0>         0.0690
     44 H12         5.9775    5.2137    3.7915 H         1 <0>         0.0746
     45 H13         5.0838    3.2143    2.5104 H         1 <0>         0.0716
     46 H14         6.8662    3.4127    2.4093 H         1 <0>         0.0779
     47 H15         3.3926    0.6181    2.1911 H         1 <0>         0.4275
     48 H16         3.9817    1.5171   -0.5454 H         1 <0>         0.1000
     49 H17         3.9399   -0.2787   -0.5548 H         1 <0>         0.0848
     50 H18         1.6822    2.7903    0.0010 H         1 <0>         0.1506
     51 H19        -0.8921    1.9727    0.0172 H         1 <0>         0.1513
     52 H20        -0.8653   -0.6475    0.0074 H         1 <0>         0.2054
     53 H21         5.5625   -2.1030    2.1561 H         1 <0>         0.4420
     54 H22         6.6335   -5.2841    5.3247 H         1 <0>         0.1479
     55 H23         6.2716   -7.5741    4.5050 H         1 <0>         0.1457
     56 H24         5.4294   -7.9512    2.2246 H         1 <0>         0.1428
     57 H25         5.2888   -3.7415    1.5553 H         1 <0>         0.1329
     58 H26         8.0012    2.4606    6.3911 H         1 <0>         0.0815
     59 H27         6.2630    2.8197    6.6673 H         1 <0>         0.0881
@<TRIPOS>BOND
     1    1    2 1
     2    1   34 1
     3    1   35 1
     4    1   36 1
     5    2    3 1
     6    2    4 1
     7    2    5 1
     8    3   37 1
     9    3   38 1
    10    3   39 1
    11    4   40 1
    12    4   41 1
    13    4   42 1
    14    5    6 1
    15    5   33 1
    16    5    7 1
    17    7    8 1
    18    7   43 1
    19    7   44 1
    20    8    9 1
    21    8   45 1
    22    8   46 1
    23    9   13 1
    24    9   10 2
    25   10   11 1
    26   10   33 1
    27   11   12 1
    28   12   13 2
    29   12   23 1
    30   13   14 1
    31   14   15 2
    32   14   16 am
    33   16   17 1
    34   16   47 1
    35   17   18 1
    36   17   48 1
    37   17   49 1
    38   18   22 1
    39   18   19 2
    40   19   20 1
    41   19   50 1
    42   20   21 2
    43   20   51 1
    44   21   22 1
    45   21   52 1
    46   23   24 am
    47   23   53 1
    48   24   25 2
    49   24   26 1
    50   26   31 ar
    51   26   27 ar
    52   27   28 ar
    53   27   54 1
    54   28   29 ar
    55   28   55 1
    56   29   30 ar
    57   29   56 1
    58   30   31 ar
    59   30   32 1
    60   31   57 1
    61   33   58 1
    62   33   59 1
@<TRIPOS>MOLECULE
ZINC41021102
   61    64     0     0     0
SMALL
USER_CHARGES

@<TRIPOS>ATOM
      1 C1         -0.4242    1.4627   -0.0590 C.3       1 <0>        -0.1540
      2 C2         -0.3390   -0.0650   -0.0582 C.3       1 <0>        -0.1168
      3 C3          0.3645   -0.5372   -1.3321 C.3       1 <0>        -0.1067
      4 C4          0.4496   -2.0649   -1.3313 C.3       1 <0>        -0.1054
      5 S1          1.2837   -2.6248   -2.8418 S.3       1 <0>         0.0186
      6 C5          1.3027   -4.3803   -2.6924 C.2       1 <0>         0.2199
      7 N1          0.7915   -5.0804   -1.6691 N.2       1 <0>        -0.5441
      8 C6          0.9742   -6.3557   -1.8789 C.2       1 <0>         0.5070
      9 N2          1.6227   -6.4997   -3.0608 N.pl3     1 <0>        -0.3819
     10 N3          1.8157   -5.2162   -3.5695 N.2       1 <0>        -0.2642
     11 C7          2.0067   -7.7933   -3.6197 C.3       1 <0>         0.2821
     12 H1          1.7085   -7.8396   -4.6671 H         1 <0>         0.1149
     13 C8          1.3217   -8.8934   -2.8537 C.2       1 <0>        -0.2921
     14 C9          0.6906   -8.6906   -1.6880 C.2       1 <0>         0.2169
     15 N4          0.6114   -7.4495   -1.1050 N.pl3     1 <0>        -0.6103
     16 C10         0.0463   -9.8633   -0.9948 C.3       1 <0>        -0.1364
     17 C11         1.3444  -10.2028   -3.3890 C.2       1 <0>         0.5924
     18 O1          0.5692  -10.5116   -4.2760 O.2       1 <0>        -0.5062
     19 N5          2.2241  -11.1085   -2.9174 N.am      1 <0>        -0.6602
     20 C12         2.3105  -12.3729   -3.5085 C.ar      1 <0>         0.1432
     21 C13         1.1695  -12.9863   -4.0100 C.ar      1 <0>        -0.1221
     22 C14         1.2582  -14.2349   -4.5930 C.ar      1 <0>        -0.1039
     23 C15         2.4814  -14.8748   -4.6780 C.ar      1 <0>        -0.1286
     24 C16         3.6190  -14.2670   -4.1798 C.ar      1 <0>        -0.0691
     25 C17         3.5381  -13.0157   -3.6005 C.ar      1 <0>        -0.1072
     26 C18         4.7795  -12.3513   -3.0634 C.3       1 <0>        -0.1166
     27 C19         4.9497  -14.9679   -4.2745 C.3       1 <0>        -0.1169
     28 C20         3.5004   -7.9626   -3.5145 C.ar      1 <0>        -0.0907
     29 C21         4.1124   -7.9445   -2.2751 C.ar      1 <0>        -0.0899
     30 C22         5.4823   -8.1002   -2.1781 C.ar      1 <0>        -0.0896
     31 C23         6.2411   -8.2741   -3.3216 C.ar      1 <0>        -0.0778
     32 C24         5.6283   -8.2920   -4.5616 C.ar      1 <0>        -0.0852
     33 C25         4.2577   -8.1415   -4.6572 C.ar      1 <0>        -0.0830
     34 Br1         8.1155   -8.4865   -3.1897 Br        1 <0>        -0.0416
     35 H2          0.5810    1.8826   -0.0960 H         1 <0>         0.0559
     36 H3         -0.9889    1.7946   -0.9302 H         1 <0>         0.0559
     37 H4         -0.9254    1.7991    0.8486 H         1 <0>         0.0569
     38 H5          0.2257   -0.3969    0.8130 H         1 <0>         0.0650
     39 H6         -1.3442   -0.4849   -0.0212 H         1 <0>         0.0652
     40 H7         -0.2002   -0.2053   -2.2034 H         1 <0>         0.0749
     41 H8          1.3696   -0.1173   -1.3691 H         1 <0>         0.0748
     42 H9          1.0143   -2.3968   -0.4601 H         1 <0>         0.0930
     43 H10        -0.5555   -2.4848   -1.2944 H         1 <0>         0.0933
     44 H11         0.3138   -7.3415   -0.1882 H         1 <0>         0.4412
     45 H12         0.7375  -10.2754   -0.2596 H         1 <0>         0.0980
     46 H13        -0.8637   -9.5338   -0.4932 H         1 <0>         0.0930
     47 H14        -0.2011  -10.6290   -1.7301 H         1 <0>         0.0950
     48 H15         2.7972  -10.8833   -2.1680 H         1 <0>         0.4101
     49 H16         0.2139  -12.4873   -3.9437 H         1 <0>         0.1379
     50 H17         0.3714  -14.7125   -4.9828 H         1 <0>         0.1254
     51 H18         2.5481  -15.8514   -5.1341 H         1 <0>         0.1228
     52 H19         4.9177  -12.6299   -2.0187 H         1 <0>         0.0699
     53 H20         5.6442  -12.6744   -3.6431 H         1 <0>         0.0741
     54 H21         4.6745  -11.2690   -3.1400 H         1 <0>         0.0626
     55 H22         5.4366  -14.6982   -5.2116 H         1 <0>         0.0716
     56 H23         5.5797  -14.6661   -3.4377 H         1 <0>         0.0687
     57 H24         4.7954  -16.0465   -4.2425 H         1 <0>         0.0679
     58 H25         3.5199   -7.8084   -1.3824 H         1 <0>         0.1216
     59 H26         5.9604   -8.0858   -1.2098 H         1 <0>         0.1359
     60 H27         6.2203   -8.4278   -5.4546 H         1 <0>         0.1388
     61 H28         3.7787   -8.1597   -5.6250 H         1 <0>         0.1358
@<TRIPOS>BOND
     1    1    2 1
     2    1   35 1
     3    1   36 1
     4    1   37 1
     5    2    3 1
     6    2   38 1
     7    2   39 1
     8    3    4 1
     9    3   40 1
    10    3   41 1
    11    4    5 1
    12    4   42 1
    13    4   43 1
    14    5    6 1
    15    6   10 2
    16    6    7 1
    17    7    8 2
    18    8   15 1
    19    8    9 1
    20    9   10 1
    21    9   11 1
    22   11   12 1
    23   11   13 1
    24   11   28 1
    25   13   14 2
    26   13   17 1
    27   14   15 1
    28   14   16 1
    29   15   44 1
    30   16   45 1
    31   16   46 1
    32   16   47 1
    33   17   18 2
    34   17   19 am
    35   19   20 1
    36   19   48 1
    37   20   25 ar
    38   20   21 ar
    39   21   22 ar
    40   21   49 1
    41   22   23 ar
    42   22   50 1
    43   23   24 ar
    44   23   51 1
    45   24   25 ar
    46   24   27 1
    47   25   26 1
    48   26   52 1
    49   26   53 1
    50   26   54 1
    51   27   55 1
    52   27   56 1
    53   27   57 1
    54   28   33 ar
    55   28   29 ar
    56   29   30 ar
    57   29   58 1
    58   30   31 ar
    59   30   59 1
    60   31   32 ar
    61   31   34 1
    62   32   33 ar
    63   32   60 1
    64   33   61 1
@<TRIPOS>MOLECULE
ZINC00147092
   32    35     0     0     0
SMALL
USER_CHARGES
2-[[2-(2-thienyl)thiazol-4-yl]methyl]isoindoline-1,3-dione
@<TRIPOS>ATOM
      1 C1          5.6454    3.6009   -0.7237 C.ar      1 <0>        -0.0936
      2 C2          5.6584    3.5939    0.6585 C.ar      1 <0>        -0.0961
      3 C3          4.5441    3.1766    1.3696 C.ar      1 <0>        -0.0437
      4 C4          3.4102    2.7630    0.6891 C.ar      1 <0>        -0.1428
      5 C5          3.3969    2.7701   -0.7203 C.ar      1 <0>        -0.1386
      6 C6          4.5180    3.1902   -1.4178 C.ar      1 <0>        -0.0452
      7 C7          2.0596    2.2793   -1.1146 C.2       1 <0>         0.5719
      8 O1          1.6625    2.1419   -2.2541 O.2       1 <0>        -0.4424
      9 N1          1.3560    2.0099   -0.0001 N.am      1 <0>        -0.5729
     10 C8          2.0787    2.2728    1.1036 C.2       1 <0>         0.5760
     11 O2          1.7012    2.1291    2.2490 O.2       1 <0>        -0.4622
     12 C9         -0.0184    1.5028    0.0103 C.3       1 <0>         0.1853
     13 C10         0.0021   -0.0041    0.0020 C.2       1 <0>         0.0283
     14 C11        -0.0749   -0.6917    1.1713 C.2       1 <0>        -0.1721
     15 S1         -0.0104   -2.3750    0.5706 S.3       1 <0>         0.0522
     16 C12         0.1203   -1.9812   -1.1685 C.2       1 <0>         0.1898
     17 N2          0.0997   -0.6538   -1.1348 N.2       1 <0>        -0.4766
     18 C13         0.2225   -2.8846   -2.3255 C.2       1 <0>        -0.1026
     19 C14         0.2487   -4.2563   -2.3519 C.2       1 <0>        -0.1126
     20 C15         0.3474   -4.8918   -3.5687 C.2       1 <0>        -0.1629
     21 C16         0.4257   -4.1456   -4.7014 C.2       1 <0>        -0.1646
     22 S2          0.3526   -2.4813   -4.0599 S.3       1 <0>         0.1369
     23 H1          6.5195    3.9289   -1.2665 H         1 <0>         0.1438
     24 H2          6.5428    3.9162    1.1881 H         1 <0>         0.1438
     25 H3          4.5597    3.1740    2.4495 H         1 <0>         0.1430
     26 H4          4.5134    3.1981   -2.4978 H         1 <0>         0.1431
     27 H5         -0.5455    1.8639   -0.8728 H         1 <0>         0.1148
     28 H6         -0.5286    1.8543    0.9071 H         1 <0>         0.1165
     29 H7         -0.1544   -0.3236    2.1835 H         1 <0>         0.2070
     30 H8          0.1899   -4.8260   -1.4363 H         1 <0>         0.1392
     31 H9          0.3667   -5.9703   -3.6221 H         1 <0>         0.1433
     32 H10         0.5107   -4.4748   -5.7265 H         1 <0>         0.1939
@<TRIPOS>BOND
     1    1    6 ar
     2    1    2 ar
     3    1   23 1
     4    2    3 ar
     5    2   24 1
     6    3    4 ar
     7    3   25 1
     8    4   10 1
     9    4    5 ar
    10    5    6 ar
    11    5    7 1
    12    6   26 1
    13    7    8 2
    14    7    9 am
    15    9   10 am
    16    9   12 1
    17   10   11 2
    18   12   13 1
    19   12   27 1
    20   12   28 1
    21   13   17 1
    22   13   14 2
    23   14   15 1
    24   14   29 1
    25   15   16 1
    26   16   17 2
    27   16   18 1
    28   18   22 1
    29   18   19 2
    30   19   20 1
    31   19   30 1
    32   20   21 2
    33   20   31 1
    34   21   22 1
    35   21   32 1
@<TRIPOS>MOLECULE
ZINC13671424
   26    28     0     0     0
SMALL
USER_CHARGES
5-[5-(3-chloro-2-thienyl)-1,2,4-oxadiazol-3-yl]-2-(trifluoromethyl)pyridine
@<TRIPOS>ATOM
      1 C1          0.6139    4.1137    0.0188 C.ar      1 <0>        -0.0350
      2 C2          1.0253    5.4358    0.0224 C.ar      1 <0>        -0.1201
      3 C3          2.3777    5.7233    0.0110 C.ar      1 <0>         0.0533
      4 N1          3.2777    4.7589   -0.0037 N.ar      1 <0>        -0.4383
      5 C4          2.9340    3.4873   -0.0019 C.ar      1 <0>         0.1546
      6 C5          1.5914    3.1157    0.0036 C.ar      1 <0>        -0.0427
      7 C6          1.2057    1.6821   -0.0004 C.2       1 <0>         0.2173
      8 N2          2.0479    0.6293   -0.0141 N.2       1 <0>        -0.4577
      9 C7          1.2720   -0.4438   -0.0125 C.2       1 <0>         0.2830
     10 O1          0.0021   -0.0041    0.0020 O.3       1 <0>         0.1136
     11 N3         -0.0144    1.2084    0.0087 N.2       1 <0>        -0.3610
     12 C8          1.7136   -1.8430   -0.0238 C.2       1 <0>        -0.1590
     13 C9          0.9506   -2.9996   -0.0170 C.2       1 <0>        -0.0032
     14 C10         1.6291   -4.1964   -0.0346 C.2       1 <0>        -0.1721
     15 C11         2.9860   -4.1882   -0.0468 C.2       1 <0>        -0.1731
     16 S1          3.3727   -2.4984   -0.0419 S.3       1 <0>         0.2679
     17 Cl1        -0.7843   -2.9413    0.0075 Cl        1 <0>        -0.0234
     18 C12         2.8306    7.1606    0.0149 C.3       1 <0>         0.5235
     19 F1          2.9835    7.5978    1.3350 F         1 <0>        -0.1669
     20 F2          4.0538    7.2659   -0.6559 F         1 <0>        -0.1603
     21 F3          1.8749    7.9524   -0.6308 F         1 <0>        -0.1683
     22 H1         -0.4359    3.8604    0.0279 H         1 <0>         0.1590
     23 H2          0.2977    6.2338    0.0344 H         1 <0>         0.1609
     24 H3          3.6999    2.7260   -0.0095 H         1 <0>         0.1840
     25 H4          1.0884   -5.1313   -0.0344 H         1 <0>         0.1573
     26 H5          3.6617   -5.0306   -0.0570 H         1 <0>         0.2066
@<TRIPOS>BOND
     1    1    6 ar
     2    1    2 ar
     3    1   22 1
     4    2    3 ar
     5    2   23 1
     6    3    4 ar
     7    3   18 1
     8    4    5 ar
     9    5    6 ar
    10    5   24 1
    11    6    7 1
    12    7   11 2
    13    7    8 1
    14    8    9 2
    15    9   10 1
    16    9   12 1
    17   10   11 1
    18   12   16 1
    19   12   13 2
    20   13   14 1
    21   13   17 1
    22   14   15 2
    23   14   25 1
    24   15   16 1
    25   15   26 1
    26   18   19 1
    27   18   20 1
    28   18   21 1
@<TRIPOS>MOLECULE
ZINC35357019
   36    38     0     0     0
SMALL
USER_CHARGES

@<TRIPOS>ATOM
      1 C1         -2.5518    1.9272   -2.7297 C.3       1 <0>        -0.1085
      2 C2         -1.5327    2.0288   -3.8352 C.2       1 <0>         0.2327
      3 C3         -0.4692    1.1884   -3.8989 C.2       1 <0>        -0.8302
      4 S1          0.3378    1.7888   -5.3743 S.3       1 <0>         0.3047
      5 C4         -0.7454    3.0226   -5.7447 C.2       1 <0>         0.1013
      6 N1         -1.6368    2.9350   -4.7877 N.2       1 <0>        -0.5221
      7 Cl1        -0.6973    4.1366   -7.0753 Cl        1 <0>         0.0778
      8 S2         -0.0112   -0.1300   -2.8234 S.o2      1 <0>         2.7271
      9 O1          0.9382    0.4024   -1.9098 O.2       1 <0>        -0.9252
     10 O2         -1.2194   -0.7433   -2.3953 O.2       1 <0>        -0.9280
     11 N2          0.7910   -1.2527   -3.7390 N.pl3     1 <0>        -0.9300
     12 C5          2.1525   -1.0977   -4.0220 C.ar      1 <0>         0.1736
     13 C6          2.7596    0.1293   -3.7773 C.ar      1 <0>        -0.1761
     14 C7          4.1026    0.3012   -4.0454 C.ar      1 <0>        -0.0796
     15 C8          4.8434   -0.7483   -4.5579 C.ar      1 <0>        -0.1386
     16 C9          4.2421   -1.9672   -4.8039 C.ar      1 <0>        -0.0881
     17 C10         2.8947   -2.1478   -4.5393 C.ar      1 <0>        -0.1050
     18 C11         2.2688   -3.4869   -4.8275 C.3       1 <0>        -0.0795
     19 C12         0.9750   -3.6552   -4.0312 C.3       1 <0>        -0.1255
     20 C13         0.0861   -2.4308   -4.2623 C.3       1 <0>         0.1299
     21 H1         -0.8604   -2.5581   -3.7369 H         1 <0>         0.1174
     22 C14        -0.1709   -2.2577   -5.7606 C.3       1 <0>        -0.1711
     23 H2         -3.3467    1.2445   -3.0299 H         1 <0>         0.1051
     24 H3         -2.0717    1.5511   -1.8263 H         1 <0>         0.0829
     25 H4         -2.9742    2.9127   -2.5333 H         1 <0>         0.0962
     26 H5          2.1801    0.9479   -3.3768 H         1 <0>         0.1314
     27 H6          4.5744    1.2538   -3.8549 H         1 <0>         0.1308
     28 H7          5.8946   -0.6143   -4.7667 H         1 <0>         0.1269
     29 H8          4.8254   -2.7833   -5.2041 H         1 <0>         0.1284
     30 H9          2.0484   -3.5599   -5.8925 H         1 <0>         0.0830
     31 H10         2.9668   -4.2776   -4.5522 H         1 <0>         0.0830
     32 H11         0.4549   -4.5531   -4.3649 H         1 <0>         0.0905
     33 H12         1.2079   -3.7390   -2.9696 H         1 <0>         0.0763
     34 H13         0.7799   -2.1456   -6.2817 H         1 <0>         0.0717
     35 H14        -0.6938   -3.1342   -6.1431 H         1 <0>         0.0797
     36 H15        -0.7818   -1.3699   -5.9242 H         1 <0>         0.0571
@<TRIPOS>BOND
     1    1    2 1
     2    1   23 1
     3    1   24 1
     4    1   25 1
     5    2    6 1
     6    2    3 2
     7    3    4 1
     8    3    8 1
     9    4    5 1
    10    5    6 2
    11    5    7 1
    12    8    9 2
    13    8   10 2
    14    8   11 1
    15   11   20 1
    16   11   12 1
    17   12   17 ar
    18   12   13 ar
    19   13   14 ar
    20   13   26 1
    21   14   15 ar
    22   14   27 1
    23   15   16 ar
    24   15   28 1
    25   16   17 ar
    26   16   29 1
    27   17   18 1
    28   18   19 1
    29   18   30 1
    30   18   31 1
    31   19   20 1
    32   19   32 1
    33   19   33 1
    34   20   21 1
    35   20   22 1
    36   22   34 1
    37   22   35 1
    38   22   36 1
@<TRIPOS>MOLECULE
ZINC02315325
   32    35     0     0     0
SMALL
USER_CHARGES

@<TRIPOS>ATOM
      1 C1         -0.0163    1.3517    0.0095 C.2       1 <0>        -0.1858
      2 C2          1.1752    2.0366    0.0018 C.2       1 <0>        -0.0565
      3 C3          2.3213    1.2502   -0.0134 C.2       1 <0>        -0.2102
      4 S1          1.6357   -0.3954   -0.0157 S.3       1 <0>         0.2224
      5 C4          0.0021   -0.0041    0.0020 C.2       1 <0>        -0.2145
      6 C5          3.6789    1.6514   -0.0246 C.2       1 <0>         0.2873
      7 C6          4.7428    0.5912   -0.0465 C.3       1 <0>        -0.1418
      8 C7          5.9689    1.0479   -0.8451 C.3       1 <0>         0.1880
      9 H1          5.7636    0.9679   -1.9126 H         1 <0>         0.1144
     10 N1          6.2437    2.4415   -0.4981 N.pl3     1 <0>        -0.5116
     11 C8          7.3971    3.1413   -0.4710 C.2       1 <0>         0.1889
     12 N2          7.0985    4.3640   -0.1051 N.2       1 <0>        -0.2889
     13 N3          5.8294    4.4707    0.1026 N.2       1 <0>        -0.2418
     14 C9          5.2522    3.3194   -0.1173 C.2       1 <0>         0.3362
     15 N4          3.9555    2.9332   -0.0208 N.2       1 <0>        -0.4184
     16 C10         7.1560    0.1903   -0.4896 C.ar      1 <0>        -0.1024
     17 C11         7.6064    0.1409    0.8164 C.ar      1 <0>        -0.0894
     18 C12         8.6949   -0.6458    1.1430 C.ar      1 <0>        -0.0855
     19 C13         9.3336   -1.3838    0.1627 C.ar      1 <0>        -0.0757
     20 C14         8.8826   -1.3340   -1.1440 C.ar      1 <0>        -0.0871
     21 C15         7.7907   -0.5511   -1.4686 C.ar      1 <0>        -0.0859
     22 Br1        10.8232   -2.4598    0.6088 Br        1 <0>        -0.0361
     23 H2         -0.9546    1.8862    0.0258 H         1 <0>         0.1409
     24 H3          1.2182    3.1157    0.0068 H         1 <0>         0.1545
     25 H4         -0.8413   -0.6787    0.0064 H         1 <0>         0.1919
     26 H5          5.0459    0.3687    0.9766 H         1 <0>         0.1154
     27 H6          8.3816    2.7645   -0.7059 H         1 <0>         0.2203
     28 H7          4.3368   -0.3122   -0.5017 H         1 <0>         0.1199
     29 H8          7.1079    0.7174    1.5816 H         1 <0>         0.1304
     30 H9          9.0469   -0.6841    2.1633 H         1 <0>         0.1401
     31 H10         9.3809   -1.9101   -1.9096 H         1 <0>         0.1416
     32 H11         7.4360   -0.5154   -2.4881 H         1 <0>         0.1395
@<TRIPOS>BOND
     1    1    5 2
     2    1    2 1
     3    1   23 1
     4    2    3 2
     5    2   24 1
     6    3    4 1
     7    3    6 1
     8    4    5 1
     9    5   25 1
    10    6   15 2
    11    6    7 1
    12    7    8 1
    13    7   26 1
    14    7   28 1
    15    8    9 1
    16    8   10 1
    17    8   16 1
    18   10   14 1
    19   10   11 1
    20   11   12 2
    21   11   27 1
    22   12   13 1
    23   13   14 2
    24   14   15 1
    25   16   21 ar
    26   16   17 ar
    27   17   18 ar
    28   17   29 1
    29   18   19 ar
    30   18   30 1
    31   19   20 ar
    32   19   22 1
    33   20   21 ar
    34   20   31 1
    35   21   32 1
@<TRIPOS>MOLECULE
ZINC41647290
   44    48     0     0     0
SMALL
USER_CHARGES

@<TRIPOS>ATOM
      1 C1         -0.0815    1.5094    0.0164 C.3       1 <0>        -0.1274
      2 C2         -0.0722    0.0025    0.0060 C.ar      1 <0>         0.0625
      3 C3         -0.0951   -0.6737   -1.1800 C.ar      1 <0>        -0.1848
      4 C4         -0.0853   -2.0683   -1.1964 C.ar      1 <0>         0.2158
      5 C5         -0.0513   -2.7818   -0.0103 C.ar      1 <0>        -0.1903
      6 C6         -0.0307   -2.1084    1.2062 C.ar      1 <0>         0.1802
      7 C7         -0.0343   -0.7047    1.2079 C.ar      1 <0>        -0.2957
      8 C8          0.0018   -0.2900    2.6220 C.2       1 <0>         0.4208
      9 O1          0.0067    0.8444    3.0670 O.2       1 <0>        -0.4162
     10 C9          0.0305   -1.5541    3.3758 C.2       1 <0>        -0.0298
     11 C10         0.0686   -1.6818    4.7252 C.2       1 <0>        -0.0247
     12 C11        -0.0187   -3.0141    5.3401 C.ar      1 <0>        -0.0502
     13 C12        -0.1155   -3.1421    6.7306 C.ar      1 <0>        -0.1020
     14 C13        -0.1970   -4.3945    7.3007 C.ar      1 <0>        -0.0937
     15 C14        -0.1834   -5.5252    6.5026 C.ar      1 <0>        -0.1398
     16 C15        -0.0874   -5.4085    5.1246 C.ar      1 <0>         0.0964
     17 C16        -0.0113   -4.1604    4.5382 C.ar      1 <0>        -0.1353
     18 F1         -0.0739   -6.5177    4.3534 F         1 <0>        -0.1370
     19 O2         -0.0001   -2.5661    2.4769 O.3       1 <0>        -0.2085
     20 C17        -0.0321   -4.2891   -0.0146 C.3       1 <0>         0.1010
     21 N1         -0.4680   -4.7835   -1.3282 N.3       1 <0>        -0.5249
     22 C18         0.2657   -4.0905   -2.3999 C.3       1 <0>         0.2179
     23 O3         -0.1117   -2.7118   -2.3931 O.3       1 <0>        -0.2915
     24 C19        -0.2941   -6.2388   -1.4271 C.3       1 <0>         0.0208
     25 C20         0.6943   -6.7629   -2.4709 C.3       1 <0>        -0.2182
     26 C21        -0.8107   -6.9277   -2.6918 C.3       1 <0>        -0.1641
     27 H1          0.9434    1.8793   -0.0096 H         1 <0>         0.0851
     28 H2         -0.6222    1.8754   -0.8564 H         1 <0>         0.0786
     29 H3         -0.5727    1.8635    0.9228 H         1 <0>         0.0826
     30 H4         -0.1213   -0.1257   -2.1103 H         1 <0>         0.1484
     31 H5          0.1630   -0.8047    5.3482 H         1 <0>         0.1709
     32 H6         -0.1259   -2.2613    7.3556 H         1 <0>         0.1383
     33 H7         -0.2713   -4.4937    8.3736 H         1 <0>         0.1395
     34 H8         -0.2475   -6.5034    6.9557 H         1 <0>         0.1389
     35 H9          0.0586   -4.0698    3.4643 H         1 <0>         0.1552
     36 H10         0.9799   -4.6398    0.1878 H         1 <0>         0.0603
     37 H11        -0.7064   -4.6629    0.7560 H         1 <0>         0.1017
     38 H12         1.3380   -4.1772   -2.2245 H         1 <0>         0.0535
     39 H13         0.0127   -4.5343   -3.3628 H         1 <0>         0.1287
     40 H14        -0.3723   -6.7866   -0.4880 H         1 <0>         0.1296
     41 H15         1.2155   -6.0278   -3.0842 H         1 <0>         0.0986
     42 H16         1.2667   -7.6555   -2.2185 H         1 <0>         0.1030
     43 H17        -1.2284   -7.9288   -2.5847 H         1 <0>         0.1054
     44 H18        -1.2796   -6.3011   -3.4504 H         1 <0>         0.1007
@<TRIPOS>BOND
     1    1    2 1
     2    1   27 1
     3    1   28 1
     4    1   29 1
     5    2    7 ar
     6    2    3 ar
     7    3    4 ar
     8    3   30 1
     9    4   23 1
    10    4    5 ar
    11    5    6 ar
    12    5   20 1
    13    6   19 1
    14    6    7 ar
    15    7    8 1
    16    8    9 2
    17    8   10 1
    18   10   11 2
    19   10   19 1
    20   11   12 1
    21   11   31 1
    22   12   17 ar
    23   12   13 ar
    24   13   14 ar
    25   13   32 1
    26   14   15 ar
    27   14   33 1
    28   15   16 ar
    29   15   34 1
    30   16   17 ar
    31   16   18 1
    32   17   35 1
    33   20   21 1
    34   20   36 1
    35   20   37 1
    36   21   22 1
    37   21   24 1
    38   22   23 1
    39   22   38 1
    40   22   39 1
    41   24   26 1
    42   24   25 1
    43   24   40 1
    44   25   26 1
    45   25   41 1
    46   25   42 1
    47   26   43 1
    48   26   44 1
@<TRIPOS>MOLECULE
ZINC13195527
   47    49     0     0     0
SMALL
USER_CHARGES
3-[[4-(2,5-diethylphenyl)thiazol-2-yl]sulfamoyl]benzoic acid
@<TRIPOS>ATOM
      1 C1         -6.5012   -1.0446   -0.0103 C.3       1 <0>        -0.1480
      2 C2         -6.1654   -0.4023    1.3371 C.3       1 <0>        -0.0827
      3 C3         -4.7464    0.1046    1.3123 C.ar      1 <0>        -0.0898
      4 C4         -4.4818    1.3960    0.8921 C.ar      1 <0>        -0.1111
      5 C5         -3.1820    1.8681    0.8671 C.ar      1 <0>        -0.1214
      6 C6         -2.1409    1.0522    1.2613 C.ar      1 <0>        -0.0515
      7 C7         -2.4008   -0.2515    1.6800 C.ar      1 <0>        -0.0159
      8 C8         -3.7136   -0.7199    1.7090 C.ar      1 <0>        -0.0980
      9 C9         -1.2859   -1.1349    2.0994 C.2       1 <0>         0.1070
     10 C10        -1.5196   -2.4473    2.3970 C.2       1 <0>        -0.2109
     11 S1          0.1295   -2.9924    2.8206 S.3       1 <0>         0.1022
     12 C11         0.9574   -1.4300    2.5608 C.2       1 <0>         0.3184
     13 N1         -0.0457   -0.6585    2.1845 N.2       1 <0>        -0.5115
     14 N2          2.2981   -1.1137    2.7090 N.pl3     1 <0>        -0.9910
     15 S2          3.3744   -2.2756    3.1925 S.o2      1 <0>         2.6802
     16 O1          4.6532   -1.6568    3.2239 O.2       1 <0>        -0.9352
     17 O2          2.8057   -2.9074    4.3312 O.2       1 <0>        -0.9266
     18 C12         3.4348   -3.4921    1.9193 C.ar      1 <0>        -0.6990
     19 C13         4.3481   -3.3665    0.8872 C.ar      1 <0>        -0.0226
     20 C14         4.4022   -4.3171   -0.1165 C.ar      1 <0>        -0.1547
     21 C15         3.5447   -5.3977   -0.0946 C.ar      1 <0>        -0.0149
     22 C16         2.6209   -5.5306    0.9436 C.ar      1 <0>        -0.1280
     23 C17         2.5755   -4.5703    1.9566 C.ar      1 <0>         0.0176
     24 C18         1.6998   -6.6851    0.9740 C.2       1 <0>         0.4898
     25 O3          0.8971   -6.7981    1.8786 O.co2     1 <0>        -0.6191
     26 C19        -0.7251    1.5679    1.2330 C.3       1 <0>        -0.0826
     27 C20        -0.3192    2.0207    2.6370 C.3       1 <0>        -0.1292
     28 H1         -7.5275   -1.4112    0.0077 H         1 <0>         0.0565
     29 H2         -6.3938   -0.3039   -0.8027 H         1 <0>         0.0545
     30 H3         -5.8215   -1.8763   -0.1958 H         1 <0>         0.0578
     31 H4         -6.2728   -1.1431    2.1295 H         1 <0>         0.0716
     32 H5         -6.8451    0.4293    1.5227 H         1 <0>         0.0697
     33 H6         -5.2933    2.0379    0.5828 H         1 <0>         0.1191
     34 H7         -2.9813    2.8770    0.5382 H         1 <0>         0.1210
     35 H8         -3.9214   -1.7277    2.0372 H         1 <0>         0.1253
     36 H9         -2.4457   -3.0028    2.3809 H         1 <0>         0.2014
     37 H10         2.6063   -0.2116    2.5295 H         1 <0>         0.4370
     38 H11         5.0219   -2.5228    0.8654 H         1 <0>         0.1359
     39 H12         5.1176   -4.2132   -0.9189 H         1 <0>         0.1317
     40 H13         3.5882   -6.1392   -0.8786 H         1 <0>         0.1427
     41 H14         1.8662   -4.6694    2.7650 H         1 <0>         0.1467
     42 H15        -0.6594    2.4115    0.5460 H         1 <0>         0.0523
     43 H16        -0.0561    0.7746    0.8994 H         1 <0>         0.1027
     44 H17        -0.9882    2.8139    2.9705 H         1 <0>         0.0390
     45 H18         0.7048    2.3937    2.6165 H         1 <0>         0.0483
     46 H19        -0.3849    1.1771    3.3240 H         1 <0>         0.0634
     47 O4          1.7502   -7.6128   -0.0016 O.co2     1 <0>        -0.7483
@<TRIPOS>BOND
     1    1    2 1
     2    1   28 1
     3    1   29 1
     4    1   30 1
     5    2    3 1
     6    2   31 1
     7    2   32 1
     8    3    8 ar
     9    3    4 ar
    10    4    5 ar
    11    4   33 1
    12    5    6 ar
    13    5   34 1
    14    6    7 ar
    15    6   26 1
    16    7    8 ar
    17    7    9 1
    18    8   35 1
    19    9   13 1
    20    9   10 2
    21   10   11 1
    22   10   36 1
    23   11   12 1
    24   12   13 2
    25   12   14 1
    26   14   15 1
    27   14   37 1
    28   15   16 2
    29   15   17 2
    30   15   18 1
    31   18   23 ar
    32   18   19 ar
    33   19   20 ar
    34   19   38 1
    35   20   21 ar
    36   20   39 1
    37   21   22 ar
    38   21   40 1
    39   22   23 ar
    40   22   24 1
    41   23   41 1
    42   24   25 2
    43   24   47 1
    44   26   27 1
    45   26   42 1
    46   26   43 1
    47   27   44 1
    48   27   45 1
    49   27   46 1
@<TRIPOS>MOLECULE
ZINC01840684
   49    52     0     0     0
SMALL
USER_CHARGES
1-benzyl-N-(2,4-dichlorophenyl)-2-hydroxy-4-oxo-5,6,7,8-tetrahydroquinoline-3-carboxamide
@<TRIPOS>ATOM
      1 C1         -4.5106   -6.4151    3.2104 C.ar      1 <0>        -0.1206
      2 C2         -3.9053   -5.2362    3.6040 C.ar      1 <0>        -0.1274
      3 C3         -4.4417   -4.0218    3.2189 C.ar      1 <0>        -0.0811
      4 C4         -5.5834   -3.9861    2.4404 C.ar      1 <0>        -0.1008
      5 C5         -6.1917   -5.1649    2.0513 C.ar      1 <0>        -0.1136
      6 C6         -5.6524   -6.3794    2.4320 C.ar      1 <0>        -0.1323
      7 C7         -6.1685   -2.6622    2.0211 C.3       1 <0>         0.1320
      8 N1         -5.4943   -2.1926    0.8082 N.am      1 <0>        -0.5004
      9 C8         -6.0654   -2.4726   -0.4040 C.2       1 <0>         0.1733
     10 C9         -5.5022   -2.0481   -1.5454 C.2       1 <0>        -0.2587
     11 C10        -4.2769   -1.3234   -1.4988 C.2       1 <0>         0.4278
     12 O1         -3.7434   -0.9359   -2.5267 O.3       1 <0>        -0.5720
     13 C11        -3.6693   -1.0518   -0.1940 C.2       1 <0>        -0.5111
     14 C12        -4.3330   -1.5171    0.9398 C.2       1 <0>         0.5056
     15 O2         -3.8203   -1.2866    2.1652 O.2       1 <0>        -0.6777
     16 C13        -2.4045   -0.3147   -0.0842 C.2       1 <0>         0.6560
     17 O3         -1.3468   -0.9164   -0.0936 O.2       1 <0>        -0.5408
     18 N2         -2.4147    1.0285    0.0268 N.am      1 <0>        -0.6744
     19 C14        -1.2100    1.7410    0.0142 C.ar      1 <0>         0.2035
     20 C15        -0.0894    1.2017   -0.6035 C.ar      1 <0>        -0.1195
     21 C16         1.0968    1.9089   -0.6190 C.ar      1 <0>        -0.0796
     22 C17         1.1711    3.1523   -0.0157 C.ar      1 <0>        -0.0650
     23 C18         0.0579    3.6903    0.6056 C.ar      1 <0>        -0.0784
     24 C19        -1.1317    2.9868    0.6247 C.ar      1 <0>        -0.0769
     25 Cl1        -2.5282    3.6619    1.4043 Cl        1 <0>        -0.0607
     26 Cl2         2.6637    4.0383   -0.0381 Cl        1 <0>        -0.0772
     27 C20        -6.0923   -2.3131   -2.9056 C.3       1 <0>        -0.0432
     28 C21        -7.1282   -3.4291   -2.8441 C.3       1 <0>        -0.1215
     29 C22        -8.1015   -3.1226   -1.6989 C.3       1 <0>        -0.1119
     30 C23        -7.3480   -3.2679   -0.3797 C.3       1 <0>        -0.0937
     31 H1         -4.0917   -7.3639    3.5116 H         1 <0>         0.1160
     32 H2         -3.0135   -5.2640    4.2125 H         1 <0>         0.1184
     33 H3         -3.9690   -3.1007    3.5267 H         1 <0>         0.1433
     34 H4         -7.0862   -5.1371    1.4468 H         1 <0>         0.1192
     35 H5         -6.1255   -7.3005    2.1248 H         1 <0>         0.1172
     36 H6         -7.2431   -2.7835    1.8197 H         1 <0>         0.0895
     37 H7         -6.0272   -1.9271    2.8271 H         1 <0>         0.1001
     38 H8         -3.3699    1.5648    0.1273 H         1 <0>         0.4322
     39 H9         -0.1465    0.2318   -1.0752 H         1 <0>         0.1649
     40 H10         1.9674    1.4915   -1.1030 H         1 <0>         0.1372
     41 H11         0.1185    4.6608    1.0756 H         1 <0>         0.1401
     42 H12        -5.2820   -2.6024   -3.5911 H         1 <0>         0.0710
     43 H13        -6.5683   -1.3906   -3.2692 H         1 <0>         0.0618
     44 H14        -7.6728   -3.4768   -3.7986 H         1 <0>         0.0637
     45 H15        -6.6227   -4.3889   -2.6619 H         1 <0>         0.0623
     46 H16        -8.4817   -2.0959   -1.8056 H         1 <0>         0.0685
     47 H17        -8.9428   -3.8305   -1.7333 H         1 <0>         0.0675
     48 H18        -7.9772   -2.9005    0.4443 H         1 <0>         0.0819
     49 H19        -7.1048   -4.3274   -0.2111 H         1 <0>         0.0858
@<TRIPOS>BOND
     1    1    6 ar
     2    1    2 ar
     3    1   31 1
     4    2    3 ar
     5    2   32 1
     6    3    4 ar
     7    3   33 1
     8    4    5 ar
     9    4    7 1
    10    5    6 ar
    11    5   34 1
    12    6   35 1
    13    7   36 1
    14    7   37 1
    15    7    8 1
    16    8    9 1
    17    8   14 am
    18    9   30 1
    19    9   10 2
    20   10   27 1
    21   10   11 1
    22   11   12 1
    23   11   13 2
    24   13   16 1
    25   13   14 1
    26   14   15 2
    27   16   17 2
    28   16   18 am
    29   18   19 1
    30   18   38 1
    31   19   24 ar
    32   19   20 ar
    33   20   21 ar
    34   20   39 1
    35   21   22 ar
    36   21   40 1
    37   22   23 ar
    38   22   26 1
    39   23   24 ar
    40   23   41 1
    41   24   25 1
    42   27   28 1
    43   27   42 1
    44   27   43 1
    45   28   29 1
    46   28   44 1
    47   28   45 1
    48   29   30 1
    49   29   46 1
    50   29   47 1
    51   30   48 1
    52   30   49 1
@<TRIPOS>MOLECULE
ZINC36050781
   52    54     0     0     0
SMALL
USER_CHARGES

@<TRIPOS>ATOM
      1 C1         -0.4174   -1.2946   -4.9528 C.3       1 <0>        -0.1482
      2 C2         -0.1474    0.2105   -4.9023 C.3       1 <0>        -0.1294
      3 C3         -1.4772    0.9670   -4.8845 C.3       1 <0>         0.1579
      4 H1         -2.0801    0.6620   -5.7398 H         1 <0>         0.0763
      5 C4         -1.2092    2.4714   -4.9598 C.3       1 <0>        -0.1588
      6 N1         -2.1967    0.6605   -3.6457 N.pl3     1 <0>        -0.7482
      7 C5         -3.5664    0.8512   -3.5754 C.2       1 <0>         0.5043
      8 O1         -4.2568    1.2213   -4.6814 O.3       1 <0>        -0.7023
      9 C6         -4.2126    0.6689   -2.4078 C.2       1 <0>        -0.4737
     10 C7         -5.6795    0.7498   -2.3592 C.2       1 <0>         0.2293
     11 C8         -6.3953    1.1315   -3.4399 C.2       1 <0>        -0.3045
     12 S1         -8.0651    1.0498   -2.8238 S.3       1 <0>         0.1394
     13 C9         -7.7368    0.5431   -1.2578 C.2       1 <0>         0.3306
     14 N2         -8.5320    0.2797   -0.2413 N.2       1 <0>        -0.5933
     15 C10        -8.1242   -0.1175    0.9530 C.2       1 <0>         0.3084
     16 C11        -6.7776   -0.2861    1.2127 C.2       1 <0>        -0.4003
     17 C12        -5.8024   -0.0023    0.0922 C.3       1 <0>         0.2652
     18 H2         -5.2233   -0.9083   -0.0862 H         1 <0>         0.0766
     19 N3         -6.3752    0.4329   -1.2095 N.pl3     1 <0>        -0.5133
     20 C13        -4.8505    1.0661    0.5651 C.ar      1 <0>        -0.1058
     21 C14        -3.5515    0.7349    0.9017 C.ar      1 <0>        -0.0502
     22 C15        -2.6782    1.7145    1.3355 C.ar      1 <0>        -0.1364
     23 C16        -3.1028    3.0267    1.4332 C.ar      1 <0>        -0.0937
     24 C17        -4.4009    3.3603    1.0968 C.ar      1 <0>        -0.1621
     25 C18        -5.2752    2.3805    0.6571 C.ar      1 <0>         0.1194
     26 F1         -6.5431    2.7062    0.3234 F         1 <0>        -0.1373
     27 C19        -6.3308   -0.7055    2.4717 C.2       1 <0>         0.5342
     28 O2         -7.1364   -1.0137    3.3327 O.2       1 <0>        -0.5505
     29 O3         -5.0062   -0.7684    2.7320 O.3       1 <0>        -0.3574
     30 C20        -4.6216   -1.2047    4.0373 C.3       1 <0>         0.0412
     31 C21        -9.1351   -0.3873    2.0376 C.3       1 <0>        -0.0921
     32 H3          0.5300   -1.8335   -4.9655 H         1 <0>         0.0463
     33 H4         -0.9919   -1.5903   -4.0750 H         1 <0>         0.0574
     34 H5         -0.9827   -1.5323   -5.8540 H         1 <0>         0.0529
     35 H6          0.4179    0.4482   -4.0012 H         1 <0>         0.0588
     36 H7          0.4271    0.5063   -5.7802 H         1 <0>         0.0658
     37 H8         -0.6063    2.7763   -4.1045 H         1 <0>         0.0442
     38 H9         -0.6738    2.6994   -5.8815 H         1 <0>         0.0479
     39 H10        -2.1566    3.0103   -4.9471 H         1 <0>         0.0626
     40 H11        -1.7137    0.3240   -2.8748 H         1 <0>         0.3824
     41 H12        -3.6530    0.4632   -1.5073 H         1 <0>         0.0894
     42 H13        -6.0459    1.4131   -4.4223 H         1 <0>         0.2374
     43 H14        -3.2188   -0.2898    0.8261 H         1 <0>         0.1272
     44 H15        -1.6635    1.4547    1.5987 H         1 <0>         0.1233
     45 H16        -2.4198    3.7912    1.7729 H         1 <0>         0.1247
     46 H17        -4.7324    4.3853    1.1735 H         1 <0>         0.1269
     47 H18        -5.0349   -0.5262    4.7836 H         1 <0>         0.0506
     48 H19        -5.0023   -2.2112    4.2109 H         1 <0>         0.0511
     49 H20        -3.5342   -1.2094    4.1131 H         1 <0>         0.0894
     50 H21       -10.1383   -0.2022    1.6534 H         1 <0>         0.0643
     51 H22        -9.0550   -1.4258    2.3588 H         1 <0>         0.0887
     52 H23        -8.9433    0.2709    2.8849 H         1 <0>         0.0830
@<TRIPOS>BOND
     1    1    2 1
     2    1   32 1
     3    1   33 1
     4    1   34 1
     5    2    3 1
     6    2   35 1
     7    2   36 1
     8    3    4 1
     9    3    5 1
    10    3    6 1
    11    5   37 1
    12    5   38 1
    13    5   39 1
    14    6    7 1
    15    6   40 1
    16    7    8 1
    17    7    9 2
    18    9   10 1
    19    9   41 1
    20   10   19 1
    21   10   11 2
    22   11   12 1
    23   11   42 1
    24   12   13 1
    25   13   19 1
    26   13   14 2
    27   14   15 1
    28   15   16 2
    29   15   31 1
    30   16   17 1
    31   16   27 1
    32   17   18 1
    33   17   19 1
    34   17   20 1
    35   20   25 ar
    36   20   21 ar
    37   21   22 ar
    38   21   43 1
    39   22   23 ar
    40   22   44 1
    41   23   24 ar
    42   23   45 1
    43   24   25 ar
    44   24   46 1
    45   25   26 1
    46   27   28 2
    47   27   29 1
    48   29   30 1
    49   30   47 1
    50   30   48 1
    51   30   49 1
    52   31   50 1
    53   31   51 1
    54   31   52 1
@<TRIPOS>MOLECULE
ZINC39898231
   47    50     0     0     0
SMALL
USER_CHARGES

@<TRIPOS>ATOM
      1 C1         -0.0173    1.4248    0.0099 C.3       1 <0>         0.0321
      2 O1          0.0021   -0.0041    0.0020 O.3       1 <0>        -0.3900
      3 C2          0.6518   -0.5703   -1.1379 C.3       1 <0>         0.0665
      4 C3          0.6131   -2.0967   -1.0411 C.3       1 <0>        -0.1423
      5 C4          1.3087   -2.7029   -2.2615 C.3       1 <0>         0.1450
      6 N1          1.2717   -4.1645   -2.1688 N.am      1 <0>        -0.6009
      7 C5          2.2873   -5.0037   -1.5223 C.3       1 <0>         0.2645
      8 H1          2.3660   -4.7488   -0.4655 H         1 <0>         0.1136
      9 C6          1.8226   -6.4260   -1.6774 C.2       1 <0>        -0.2036
     10 C7          2.0575   -7.7425   -1.4400 C.2       1 <0>         0.1912
     11 N2          1.0116   -8.4314   -1.9845 N.pl3     1 <0>        -0.3872
     12 N3          0.1807   -7.6121   -2.5240 N.2       1 <0>        -0.2268
     13 H2          0.9106   -9.3960   -1.9668 H         1 <0>         0.4473
     14 C8          0.5987   -6.3701   -2.3820 C.2       1 <0>        -0.0496
     15 C9          0.2991   -4.9533   -2.6570 C.2       1 <0>         0.6177
     16 O2         -0.6872   -4.5546   -3.2453 O.2       1 <0>        -0.5235
     17 C10         3.2207   -8.3184   -0.7300 C.ar      1 <0>        -0.2132
     18 C11         4.1274   -9.1287   -1.4127 C.ar      1 <0>        -0.0270
     19 C12         5.2111   -9.6634   -0.7448 C.ar      1 <0>        -0.1651
     20 C13         5.4008   -9.3982    0.6013 C.ar      1 <0>        -0.0458
     21 C14         4.5078   -8.5968    1.2871 C.ar      1 <0>        -0.2476
     22 C15         3.4195   -8.0479    0.6285 C.ar      1 <0>         0.3026
     23 O3          2.5447   -7.2551    1.3008 O.3       1 <0>        -0.6961
     24 Cl1         6.3395  -10.6721   -1.5951 Cl        1 <0>        -0.1217
     25 C16         3.6205   -4.8169   -2.1998 C.ar      1 <0>        -0.0625
     26 C17         3.6858   -4.6999   -3.5759 C.ar      1 <0>        -0.0844
     27 C18         4.9078   -4.5291   -4.1985 C.ar      1 <0>        -0.1012
     28 C19         6.0666   -4.4746   -3.4446 C.ar      1 <0>        -0.0302
     29 C20         6.0011   -4.5912   -2.0667 C.ar      1 <0>        -0.0246
     30 C21         4.7765   -4.7570   -1.4447 C.ar      1 <0>        -0.0720
     31 Cl2         7.4542   -4.5236   -1.1193 Cl        1 <0>        -0.0495
     32 Cl3         7.6018   -4.2605   -4.2261 Cl        1 <0>        -0.0575
     33 H3          1.0053    1.8021    0.0021 H         1 <0>         0.0406
     34 H4         -0.5445    1.7859   -0.8732 H         1 <0>         0.0401
     35 H5         -0.5275    1.7763    0.9067 H         1 <0>         0.0846
     36 H6          0.1385   -0.2506   -2.0447 H         1 <0>         0.0511
     37 H7          1.6883   -0.2344   -1.1694 H         1 <0>         0.0513
     38 H8          1.1264   -2.4164   -0.1342 H         1 <0>         0.0800
     39 H9         -0.4234   -2.4326   -1.0095 H         1 <0>         0.0792
     40 H10         0.7954   -2.3833   -3.1684 H         1 <0>         0.0897
     41 H11         2.3452   -2.3671   -2.2930 H         1 <0>         0.0864
     42 H12         3.9819   -9.3380   -2.4622 H         1 <0>         0.1028
     43 H13         6.2504   -9.8200    1.1176 H         1 <0>         0.1056
     44 H14         4.6610   -8.3944    2.3368 H         1 <0>         0.1094
     45 H15         2.7814   -4.7425   -4.1647 H         1 <0>         0.1329
     46 H16         4.9582   -4.4385   -5.2735 H         1 <0>         0.1401
     47 H17         4.7243   -4.8441   -0.3695 H         1 <0>         0.1483
@<TRIPOS>BOND
     1    1    2 1
     2    1   33 1
     3    1   34 1
     4    1   35 1
     5    2    3 1
     6    3    4 1
     7    3   36 1
     8    3   37 1
     9    4    5 1
    10    4   38 1
    11    4   39 1
    12    5    6 1
    13    5   40 1
    14    5   41 1
    15    6   15 am
    16    6    7 1
    17    7    8 1
    18    7    9 1
    19    7   25 1
    20    9   14 1
    21    9   10 2
    22   10   17 1
    23   10   11 1
    24   11   13 1
    25   11   12 1
    26   12   14 2
    27   14   15 1
    28   15   16 2
    29   17   22 ar
    30   17   18 ar
    31   18   19 ar
    32   18   42 1
    33   19   20 ar
    34   19   24 1
    35   20   21 ar
    36   20   43 1
    37   21   22 ar
    38   21   44 1
    39   22   23 1
    40   25   30 ar
    41   25   26 ar
    42   26   27 ar
    43   26   45 1
    44   27   28 ar
    45   27   46 1
    46   28   29 ar
    47   28   32 1
    48   29   30 ar
    49   29   31 1
    50   30   47 1
@<TRIPOS>MOLECULE
ZINC58613524
   50    53     0     0     0
SMALL
USER_CHARGES

@<TRIPOS>ATOM
      1 C1         -0.3405    1.4891    0.1319 C.3       1 <0>        -0.1107
      2 C2         -0.2497   -0.0147    0.0970 C.ar      1 <0>        -0.0952
      3 C3         -0.2305   -0.6756   -1.1184 C.ar      1 <0>        -0.1142
      4 C4         -0.1474   -2.0521   -1.1573 C.ar      1 <0>        -0.0845
      5 C5         -0.0828   -2.7782    0.0330 C.ar      1 <0>         0.0196
      6 C6         -0.1027   -2.1053    1.2557 C.ar      1 <0>        -0.1216
      7 C7         -0.1802   -0.7281    1.2805 C.ar      1 <0>        -0.1135
      8 C8          0.0058   -4.2535   -0.0012 C.2       1 <0>         0.1533
      9 N1         -0.3225   -5.0317   -1.0060 N.2       1 <0>        -0.2680
     10 N2         -0.1182   -6.2614   -0.6936 N.2       1 <0>        -0.3378
     11 C9          0.3533   -6.3436    0.5307 C.2       1 <0>         0.3902
     12 S1          0.7831   -7.8216    1.3881 S.3       1 <0>        -0.7946
     13 N3          0.4536   -5.0695    1.0120 N.pl3     1 <0>        -0.4771
     14 C10         0.9347   -4.6576    2.3331 C.3       1 <0>         0.1062
     15 C11        -0.2143   -4.6563    3.3082 C.2       1 <0>         0.4940
     16 O1         -1.3256   -4.9686    2.9362 O.2       1 <0>        -0.4316
     17 N4         -0.0069   -4.3080    4.5935 N.am      1 <0>        -0.6246
     18 C12        -1.0667   -4.3067    5.4929 C.2       1 <0>         0.2896
     19 N5         -2.3256   -4.6185    5.2732 N.2       1 <0>        -0.5191
     20 C13        -3.2206   -4.5665    6.2423 C.2       1 <0>         0.0786
     21 C14        -2.7825   -4.1791    7.4654 C.2       1 <0>        -0.2240
     22 S2         -1.0493   -3.9130    7.1292 S.3       1 <0>         0.1020
     23 C15        -3.5468   -4.0216    8.7547 C.3       1 <0>         0.0214
     24 C16        -3.5245   -5.3231    9.5140 C.ar      1 <0>        -0.0755
     25 C17        -4.5165   -6.2630    9.3038 C.ar      1 <0>        -0.0996
     26 C18        -4.4968   -7.4570    9.9999 C.ar      1 <0>        -0.1065
     27 C19        -3.4854   -7.7118   10.9071 C.ar      1 <0>        -0.0772
     28 C20        -2.4926   -6.7719   11.1178 C.ar      1 <0>        -0.0351
     29 C21        -2.5095   -5.5793   10.4162 C.ar      1 <0>        -0.0987
     30 Cl1        -1.2221   -7.0912   12.2569 Cl        1 <0>        -0.0693
     31 C22        -3.4645   -9.0132   11.6667 C.3       1 <0>        -0.1207
     32 H1          0.6631    1.9142    0.1177 H         1 <0>         0.0679
     33 H2         -0.8959    1.8398   -0.7380 H         1 <0>         0.0649
     34 H3         -0.8545    1.8011    1.0411 H         1 <0>         0.0633
     35 H4         -0.2809   -0.1126   -2.0387 H         1 <0>         0.1249
     36 H5         -0.1329   -2.5668   -2.1067 H         1 <0>         0.1348
     37 H6         -0.0529   -2.6613    2.1802 H         1 <0>         0.1129
     38 H7         -0.1913   -0.2060    2.2258 H         1 <0>         0.1208
     39 H8          1.7002   -5.3545    2.6745 H         1 <0>         0.1337
     40 H9          1.3583   -3.6553    2.2692 H         1 <0>         0.1189
     41 H10         0.8819   -4.0582    4.8910 H         1 <0>         0.4246
     42 H11        -4.2557   -4.8208    6.0684 H         1 <0>         0.1708
     43 H12        -3.0840   -3.2408    9.3583 H         1 <0>         0.0900
     44 H13        -4.5784   -3.7471    8.5343 H         1 <0>         0.1017
     45 H14        -5.3073   -6.0640    8.5957 H         1 <0>         0.1307
     46 H15        -5.2720   -8.1907    9.8353 H         1 <0>         0.1324
     47 H16        -1.7323   -4.8469   10.5770 H         1 <0>         0.1322
     48 H17        -2.8973   -9.7539   11.1030 H         1 <0>         0.0764
     49 H18        -2.9958   -8.8592   12.6386 H         1 <0>         0.0729
     50 H19        -4.4855   -9.3679   11.8079 H         1 <0>         0.0706
@<TRIPOS>BOND
     1    1    2 1
     2    1   32 1
     3    1   33 1
     4    1   34 1
     5    2    7 ar
     6    2    3 ar
     7    3    4 ar
     8    3   35 1
     9    4    5 ar
    10    4   36 1
    11    5    6 ar
    12    5    8 1
    13    6    7 ar
    14    6   37 1
    15    7   38 1
    16    8   13 1
    17    8    9 2
    18    9   10 1
    19   10   11 2
    20   11   12 1
    21   11   13 1
    22   13   14 1
    23   14   15 1
    24   14   39 1
    25   14   40 1
    26   15   16 2
    27   15   17 am
    28   17   18 1
    29   17   41 1
    30   18   22 1
    31   18   19 2
    32   19   20 1
    33   20   21 2
    34   20   42 1
    35   21   22 1
    36   21   23 1
    37   23   24 1
    38   23   43 1
    39   23   44 1
    40   24   29 ar
    41   24   25 ar
    42   25   26 ar
    43   25   45 1
    44   26   27 ar
    45   26   46 1
    46   27   28 ar
    47   27   31 1
    48   28   29 ar
    49   28   30 1
    50   29   47 1
    51   31   48 1
    52   31   49 1
    53   31   50 1
@<TRIPOS>MOLECULE
ZINC09348115
   52    56     0     0     0
SMALL
USER_CHARGES

@<TRIPOS>ATOM
      1 C1         -0.0184    1.5028    0.0103 C.3       1 <0>        -0.1223
      2 C2          0.0021   -0.0041    0.0020 C.ar      1 <0>        -0.0545
      3 C3          0.0057   -0.6862   -1.2018 C.ar      1 <0>        -0.1275
      4 C4          0.0243   -2.0655   -1.2165 C.ar      1 <0>        -0.0493
      5 C5          0.0396   -2.7730   -0.0132 C.ar      1 <0>        -0.1399
      6 C6          0.0359   -2.0786    1.1977 C.ar      1 <0>        -0.0810
      7 C7          0.0229   -0.6992    1.1982 C.ar      1 <0>        -0.1275
      8 C8          0.0592   -4.2510   -0.0214 C.2       1 <0>         0.5597
      9 O1          0.0620   -4.8530   -1.0774 O.2       1 <0>        -0.4677
     10 N1          0.0739   -4.9311    1.1421 N.am      1 <0>        -0.6253
     11 C9          0.0924   -6.3283    1.1344 C.2       1 <0>         0.4497
     12 N2          0.1030   -7.0961    0.0392 N.2       1 <0>        -0.4700
     13 C10         0.1169   -8.3593    0.3865 C.2       1 <0>         0.4458
     14 N3          0.1236   -8.4119    1.7537 N.pl3     1 <0>        -0.4040
     15 N4          0.1079   -7.0964    2.2049 N.2       1 <0>        -0.3045
     16 C11         0.1563   -9.6729    2.4945 C.3       1 <0>         0.2102
     17 H1          1.1900   -9.9627    2.6832 H         1 <0>         0.1104
     18 C12        -0.5341  -10.7426    1.6400 C.3       1 <0>        -0.1506
     19 C13        -0.1199  -10.6334    0.1996 C.2       1 <0>         0.2665
     20 N5          0.1458   -9.4889   -0.3704 N.2       1 <0>        -0.4306
     21 C14        -0.0095  -11.8639   -0.5996 C.ar      1 <0>        -0.0854
     22 C15        -0.2926  -13.1055   -0.0212 C.ar      1 <0>        -0.0821
     23 C16        -0.1867  -14.2540   -0.7768 C.ar      1 <0>        -0.1275
     24 C17         0.1985  -14.1805   -2.1041 C.ar      1 <0>        -0.0869
     25 C18         0.4804  -12.9556   -2.6837 C.ar      1 <0>        -0.1283
     26 C19         0.3736  -11.7975   -1.9431 C.ar      1 <0>        -0.0558
     27 C20        -0.5750   -9.5142    3.8026 C.ar      1 <0>        -0.0928
     28 C21        -1.9134   -9.1682    3.8084 C.ar      1 <0>        -0.0760
     29 C22        -2.5847   -9.0225    5.0078 C.ar      1 <0>        -0.1074
     30 C23        -1.9169   -9.2231    6.2027 C.ar      1 <0>        -0.0213
     31 C24        -0.5774   -9.5694    6.1963 C.ar      1 <0>        -0.1080
     32 C25         0.0913   -9.7203    4.9962 C.ar      1 <0>        -0.0790
     33 Cl1        -2.7592   -9.0398    7.7096 Cl        1 <0>        -0.0618
     34 H2          1.0042    1.8801    0.0026 H         1 <0>         0.0769
     35 H3         -0.5455    1.8639   -0.8728 H         1 <0>         0.0714
     36 H4         -0.5286    1.8543    0.9071 H         1 <0>         0.0708
     37 H5         -0.0065   -0.1376   -2.1320 H         1 <0>         0.1328
     38 H6          0.0268   -2.5968   -2.1568 H         1 <0>         0.1395
     39 H7          0.0477   -2.6201    2.1321 H         1 <0>         0.1260
     40 H8          0.0248   -0.1606    2.1343 H         1 <0>         0.1314
     41 H9          0.0717   -4.4508    1.9848 H         1 <0>         0.4231
     42 H10        -0.2647  -11.7296    2.0159 H         1 <0>         0.1311
     43 H11        -1.6143  -10.6159    1.7122 H         1 <0>         0.1167
     44 H12        -0.5929  -13.1645    1.0145 H         1 <0>         0.1324
     45 H13        -0.4046  -15.2135   -0.3316 H         1 <0>         0.1315
     46 H14         0.2800  -15.0837   -2.6906 H         1 <0>         0.1288
     47 H15         0.7803  -12.9065   -3.7200 H         1 <0>         0.1315
     48 H16         0.5892  -10.8420   -2.3981 H         1 <0>         0.1416
     49 H17        -2.4345   -9.0113    2.8755 H         1 <0>         0.1256
     50 H18        -3.6302   -8.7518    5.0122 H         1 <0>         0.1373
     51 H19        -0.0555   -9.7258    7.1288 H         1 <0>         0.1396
     52 H20         1.1357   -9.9953    4.9909 H         1 <0>         0.1366
@<TRIPOS>BOND
     1    1    2 1
     2    1   34 1
     3    1   35 1
     4    1   36 1
     5    2    7 ar
     6    2    3 ar
     7    3    4 ar
     8    3   37 1
     9    4    5 ar
    10    4   38 1
    11    5    6 ar
    12    5    8 1
    13    6    7 ar
    14    6   39 1
    15    7   40 1
    16    8    9 2
    17    8   10 am
    18   10   11 1
    19   10   41 1
    20   11   15 2
    21   11   12 1
    22   12   13 2
    23   13   14 1
    24   13   20 1
    25   14   15 1
    26   14   16 1
    27   16   17 1
    28   16   27 1
    29   16   18 1
    30   18   19 1
    31   18   42 1
    32   18   43 1
    33   19   20 2
    34   19   21 1
    35   21   26 ar
    36   21   22 ar
    37   22   23 ar
    38   22   44 1
    39   23   24 ar
    40   23   45 1
    41   24   25 ar
    42   24   46 1
    43   25   26 ar
    44   25   47 1
    45   26   48 1
    46   27   32 ar
    47   27   28 ar
    48   28   29 ar
    49   28   49 1
    50   29   30 ar
    51   29   50 1
    52   30   31 ar
    53   30   33 1
    54   31   32 ar
    55   31   51 1
    56   32   52 1
@<TRIPOS>MOLECULE
ZINC33546151
   59    63     0     0     0
SMALL
USER_CHARGES
(4E,5R)-4-[hydroxy-(4-propoxyphenyl)methylene]-1-(6-methoxy-1,3-benzothiazol-2-yl)-5-phenyl-pyrrolidine-2,3-dione
@<TRIPOS>ATOM
      1 C1          8.8450   14.3398    2.1087 C.3       1 <0>        -0.1511
      2 C2          7.5977   14.5237    1.2419 C.3       1 <0>        -0.1235
      3 C3          6.7757   13.2333    1.2508 C.3       1 <0>         0.0564
      4 O1          5.6107   13.4051    0.4412 O.3       1 <0>        -0.3195
      5 C4          4.7680   12.3462    0.3418 C.ar      1 <0>         0.1270
      6 C5          3.6159   12.4475   -0.4307 C.ar      1 <0>        -0.1654
      7 C6          2.7583   11.3764   -0.5351 C.ar      1 <0>        -0.0466
      8 C7          3.0470   10.1833    0.1384 C.ar      1 <0>        -0.1132
      9 C8          4.2052   10.0884    0.9195 C.ar      1 <0>        -0.0141
     10 C9          5.0596   11.1632    1.0124 C.ar      1 <0>        -0.2145
     11 C10         2.1334    9.0354    0.0307 C.2       1 <0>         0.4107
     12 C11         2.6249    7.7917   -0.3152 C.2       1 <0>        -0.4911
     13 C12         1.8605    6.4882   -0.3402 C.3       1 <0>         0.2703
     14 H1          1.4524    6.2321    0.6487 H         1 <0>         0.0870
     15 N1          2.8084    5.4546   -0.7666 N.am      1 <0>        -0.4968
     16 C13         4.0046    6.0243   -0.9895 C.2       1 <0>         0.4788
     17 O2          4.9990    5.4329   -1.3577 O.2       1 <0>        -0.4852
     18 C14         3.9331    7.4847   -0.7190 C.2       1 <0>         0.3798
     19 O3          4.8513    8.2773   -0.8290 O.3       1 <0>        -0.4834
     20 C15         2.5167    4.1101   -0.9205 C.2       1 <0>         0.4007
     21 N2          1.3788    3.4869   -0.7229 N.2       1 <0>        -0.5323
     22 C16         1.2362    2.1568   -0.9143 C.ar      1 <0>         0.0839
     23 C17         0.0749    1.3691   -0.7384 C.ar      1 <0>        -0.0317
     24 C18         0.0963    0.0302   -0.9748 C.ar      1 <0>        -0.1859
     25 C19         1.2537   -0.6175   -1.3970 C.ar      1 <0>         0.1283
     26 C20         2.4136    0.1209   -1.5810 C.ar      1 <0>        -0.0916
     27 C21         2.3966    1.4728   -1.3435 C.ar      1 <0>        -0.1401
     28 S1          3.5942    2.7816   -1.4387 S.3       1 <0>         0.0535
     29 O4          1.2476   -1.9578   -1.6258 O.3       1 <0>        -0.3124
     30 C22         0.0139   -2.6467   -1.4130 C.3       1 <0>         0.0237
     31 C23         0.7176    6.5757   -1.3186 C.ar      1 <0>        -0.0539
     32 C24         0.9567    6.4470   -2.6740 C.ar      1 <0>        -0.1058
     33 C25        -0.0923    6.5229   -3.5711 C.ar      1 <0>        -0.1283
     34 C26        -1.3791    6.7365   -3.1134 C.ar      1 <0>        -0.1290
     35 C27        -1.6174    6.8704   -1.7584 C.ar      1 <0>        -0.1249
     36 C28        -0.5690    6.7902   -0.8610 C.ar      1 <0>        -0.0667
     37 O5          0.8145    9.1976    0.2699 O.2       1 <0>        -0.6160
     38 H2          9.4360   15.2675    2.1023 H         1 <0>         0.0621
     39 H3          9.4524   13.5154    1.7070 H         1 <0>         0.0583
     40 H4          8.5433   14.1043    3.1400 H         1 <0>         0.0574
     41 H5          6.9903   15.3481    1.6436 H         1 <0>         0.0718
     42 H6          7.8993   14.7592    0.2106 H         1 <0>         0.0724
     43 H7          7.3831   12.4089    0.8491 H         1 <0>         0.0624
     44 H8          6.4741   12.9978    2.2821 H         1 <0>         0.0604
     45 H9          3.3942   13.3683   -0.9498 H         1 <0>         0.1248
     46 H10         1.8643   11.4559   -1.1358 H         1 <0>         0.1278
     47 H11         4.4300    9.1717    1.4445 H         1 <0>         0.1209
     48 H12         5.9556   11.0894    1.6107 H         1 <0>         0.1218
     49 H13        -0.8429    1.8383   -0.4161 H         1 <0>         0.1348
     50 H14        -0.8066   -0.5447   -0.8313 H         1 <0>         0.1348
     51 H15         3.3216   -0.3635   -1.9085 H         1 <0>         0.1379
     52 H16         0.1484   -3.7161   -1.6330 H         1 <0>         0.1012
     53 H17        -0.7579   -2.2300   -2.0768 H         1 <0>         0.0574
     54 H18        -0.2984   -2.5243   -0.3654 H         1 <0>         0.0573
     55 H19         1.9625    6.2839   -3.0318 H         1 <0>         0.1029
     56 H20         0.0939    6.4180   -4.6297 H         1 <0>         0.1110
     57 H21        -2.1982    6.7985   -3.8145 H         1 <0>         0.1113
     58 H22        -2.6227    7.0373   -1.4008 H         1 <0>         0.1142
     59 H23        -0.7552    6.8949    0.1977 H         1 <0>         0.1202
@<TRIPOS>BOND
     1    1    2 1
     2    1   38 1
     3    1   39 1
     4    1   40 1
     5    2    3 1
     6    2   41 1
     7    2   42 1
     8    3    4 1
     9    3   43 1
    10    3   44 1
    11    4    5 1
    12    5   10 ar
    13    5    6 ar
    14    6    7 ar
    15    6   45 1
    16    7    8 ar
    17    7   46 1
    18    8    9 ar
    19    8   11 1
    20    9   10 ar
    21    9   47 1
    22   10   48 1
    23   11   12 1
    24   11   37 2
    25   12   18 2
    26   12   13 1
    27   13   14 1
    28   13   15 1
    29   13   31 1
    30   15   16 am
    31   15   20 1
    32   16   17 2
    33   16   18 1
    34   18   19 1
    35   20   28 1
    36   20   21 2
    37   21   22 1
    38   22   27 ar
    39   22   23 ar
    40   23   24 ar
    41   23   49 1
    42   24   25 ar
    43   24   50 1
    44   25   26 ar
    45   25   29 1
    46   26   27 ar
    47   26   51 1
    48   27   28 1
    49   29   30 1
    50   30   52 1
    51   30   53 1
    52   30   54 1
    53   31   36 ar
    54   31   32 ar
    55   32   33 ar
    56   32   55 1
    57   33   34 ar
    58   33   56 1
    59   34   35 ar
    60   34   57 1
    61   35   36 ar
    62   35   58 1
    63   36   59 1
@<TRIPOS>MOLECULE
ZINC35698242
   66    69     0     0     0
SMALL
USER_CHARGES

@<TRIPOS>ATOM
      1 C1          2.7040    1.4645   -1.4202 C.3       1 <0>        -0.1653
      2 C2          1.7111    1.4986   -0.2567 C.3       1 <0>         0.1126
      3 N1          2.3374    0.9244    0.9367 N.am      1 <0>        -0.6136
      4 C3          3.0761    1.7862    1.8629 C.3       1 <0>         0.1091
      5 C4          2.1008    2.4226    2.8553 C.3       1 <0>        -0.1690
      6 C5          2.2340   -0.3967    1.1826 C.2       1 <0>         0.6087
      7 O1          1.6922   -1.1274    0.3706 O.2       1 <0>        -0.5367
      8 C6          2.7498   -0.9313    2.3729 C.2       1 <0>        -0.3710
      9 C7          4.0951   -1.2091    2.5053 C.2       1 <0>         0.2278
     10 N2          4.5684   -1.7133    3.6342 N.2       1 <0>        -0.5944
     11 C8          3.8413   -1.9887    4.6968 C.2       1 <0>         0.3248
     12 N3          2.4911   -1.7868    4.7702 N.pl3     1 <0>        -0.5249
     13 C9          1.8508   -1.2161    3.5552 C.3       1 <0>         0.2720
     14 H1          1.3611   -0.2838    3.8366 H         1 <0>         0.0681
     15 C10         0.7819   -2.1779    3.1043 C.ar      1 <0>        -0.0591
     16 C11         1.0345   -3.5370    3.0955 C.ar      1 <0>        -0.0712
     17 C12         0.0546   -4.4197    2.6820 C.ar      1 <0>        -0.1052
     18 C13        -1.1793   -3.9427    2.2768 C.ar      1 <0>        -0.0323
     19 C14        -1.4315   -2.5824    2.2858 C.ar      1 <0>        -0.1062
     20 C15        -0.4527   -1.7011    2.7049 C.ar      1 <0>        -0.0885
     21 Cl1        -2.4104   -5.0507    1.7567 Cl        1 <0>        -0.0859
     22 C16         1.8702   -2.1255    5.9561 C.2       1 <0>         0.2358
     23 C17         2.6408   -2.6272    6.9461 C.2       1 <0>        -0.3062
     24 S1          4.2564   -2.6216    6.1948 S.3       1 <0>         0.1121
     25 C18         0.4223   -1.9462    6.1354 C.2       1 <0>        -0.4697
     26 C19        -0.1363   -2.1450    7.3447 C.2       1 <0>         0.5034
     27 O2          0.6497   -2.3743    8.4248 O.3       1 <0>        -0.7005
     28 N4         -1.5136   -2.1151    7.4846 N.pl3     1 <0>        -0.6302
     29 C20        -2.3669   -1.9710    6.3025 C.3       1 <0>         0.1057
     30 C21        -2.1174   -2.2274    8.8146 C.3       1 <0>         0.1673
     31 C22        -2.3926   -0.8495    9.3594 C.ar      1 <0>        -0.0903
     32 C23        -1.3934   -0.1520   10.0120 C.ar      1 <0>        -0.0899
     33 C24        -1.6459    1.1119   10.5117 C.ar      1 <0>        -0.1264
     34 C25        -2.8974    1.6785   10.3584 C.ar      1 <0>        -0.1292
     35 C26        -3.8964    0.9813    9.7049 C.ar      1 <0>        -0.1305
     36 C27        -3.6426   -0.2808    9.2014 C.ar      1 <0>        -0.1164
     37 C28         5.0319   -0.9370    1.3566 C.3       1 <0>        -0.1013
     38 H2          2.9922    0.4328   -1.6218 H         1 <0>         0.0595
     39 H3          2.2380    1.8917   -2.3082 H         1 <0>         0.0604
     40 H4          3.5892    2.0447   -1.1596 H         1 <0>         0.0528
     41 H5          1.4229    2.5303   -0.0551 H         1 <0>         0.0703
     42 H6          0.8259    0.9184   -0.5173 H         1 <0>         0.0793
     43 H7          3.8103    1.1910    2.4059 H         1 <0>         0.0832
     44 H8          3.5864    2.5693    1.3020 H         1 <0>         0.0705
     45 H9          1.6563    1.6454    3.4770 H         1 <0>         0.0578
     46 H10         2.6362    3.1314    3.4870 H         1 <0>         0.0634
     47 H11         1.3152    2.9444    2.3088 H         1 <0>         0.0550
     48 H12         1.9979   -3.9092    3.4115 H         1 <0>         0.1145
     49 H13         0.2522   -5.4814    2.6748 H         1 <0>         0.1262
     50 H14        -2.3944   -2.2095    1.9693 H         1 <0>         0.1267
     51 H15        -0.6510   -0.6396    2.7165 H         1 <0>         0.1189
     52 H16         2.3522   -2.9488    7.9359 H         1 <0>         0.2290
     53 H17        -0.1936   -1.6550    5.2974 H         1 <0>         0.0921
     54 H18        -2.6110   -2.9575    5.9083 H         1 <0>         0.0354
     55 H19        -3.2852   -1.4526    6.5783 H         1 <0>         0.0461
     56 H20        -1.8395   -1.3959    5.5415 H         1 <0>         0.0639
     57 H21        -3.0522   -2.7834    8.7434 H         1 <0>         0.0591
     58 H22        -1.4328   -2.7516    9.4814 H         1 <0>         0.0913
     59 H23        -0.4156   -0.5947   10.1319 H         1 <0>         0.1327
     60 H24        -0.8654    1.6565   11.0223 H         1 <0>         0.1163
     61 H25        -3.0948    2.6656   10.7494 H         1 <0>         0.1138
     62 H26        -4.8742    1.4239    9.5854 H         1 <0>         0.1142
     63 H27        -4.4220   -0.8240    8.6876 H         1 <0>         0.1143
     64 H28         5.4853    0.0461    1.4826 H         1 <0>         0.0749
     65 H29         5.8126   -1.6974    1.3365 H         1 <0>         0.0771
     66 H30         4.4752   -0.9630    0.4198 H         1 <0>         0.0678
@<TRIPOS>BOND
     1    1    2 1
     2    1   38 1
     3    1   39 1
     4    1   40 1
     5    2    3 1
     6    2   41 1
     7    2   42 1
     8    3    4 1
     9    3    6 am
    10    4    5 1
    11    4   43 1
    12    4   44 1
    13    5   45 1
    14    5   46 1
    15    5   47 1
    16    6    7 2
    17    6    8 1
    18    8   13 1
    19    8    9 2
    20    9   10 1
    21    9   37 1
    22   10   11 2
    23   11   24 1
    24   11   12 1
    25   12   13 1
    26   12   22 1
    27   13   14 1
    28   13   15 1
    29   15   20 ar
    30   15   16 ar
    31   16   17 ar
    32   16   48 1
    33   17   18 ar
    34   17   49 1
    35   18   19 ar
    36   18   21 1
    37   19   20 ar
    38   19   50 1
    39   20   51 1
    40   22   23 2
    41   22   25 1
    42   23   24 1
    43   23   52 1
    44   25   26 2
    45   25   53 1
    46   26   27 1
    47   26   28 1
    48   28   29 1
    49   28   30 1
    50   29   54 1
    51   29   55 1
    52   29   56 1
    53   30   31 1
    54   30   57 1
    55   30   58 1
    56   31   36 ar
    57   31   32 ar
    58   32   33 ar
    59   32   59 1
    60   33   34 ar
    61   33   60 1
    62   34   35 ar
    63   34   61 1
    64   35   36 ar
    65   35   62 1
    66   36   63 1
    67   37   64 1
    68   37   65 1
    69   37   66 1
@<TRIPOS>MOLECULE
ZINC02654151
   55    59     0     0     0
SMALL
USER_CHARGES

@<TRIPOS>ATOM
      1 C1         -0.1821    1.7179   -0.3511 C.3       1 <0>         0.0303
      2 O1         -0.0834    0.2972   -0.2327 O.3       1 <0>        -0.3235
      3 C2          0.5371   -0.3647   -1.2449 C.ar      1 <0>         0.1054
      4 C3          1.0447    0.3440   -2.3261 C.ar      1 <0>        -0.1999
      5 C4          1.6752   -0.3215   -3.3548 C.ar      1 <0>        -0.0675
      6 C5          1.8034   -1.7146   -3.3087 C.ar      1 <0>         0.0129
      7 C6          1.2897   -2.4235   -2.2164 C.ar      1 <0>        -0.0907
      8 C7          0.6660   -1.7465   -1.1911 C.ar      1 <0>        -0.1478
      9 C8          2.4741   -2.4301   -4.4027 C.2       1 <0>        -0.3367
     10 C9          3.8104   -2.2819   -4.6346 C.2       1 <0>         0.2736
     11 N1          4.4345   -2.9363   -5.6386 N.2       1 <0>        -0.6462
     12 C10         3.8412   -3.7590   -6.4726 C.2       1 <0>         0.5279
     13 N2          4.3103   -4.4817   -7.5131 N.2       1 <0>        -0.5498
     14 C11         3.3449   -5.1671   -8.0615 C.2       1 <0>         0.1394
     15 N3          2.1810   -4.9232   -7.3978 N.2       1 <0>        -0.3227
     16 N4          2.4895   -4.0207   -6.3765 N.pl3     1 <0>        -0.4399
     17 C12         1.7101   -3.3700   -5.3184 C.3       1 <0>         0.3026
     18 H1          1.2531   -4.1453   -4.7035 H         1 <0>         0.0566
     19 C13         0.6010   -2.5876   -5.9734 C.ar      1 <0>        -0.0669
     20 C14         0.8737   -1.7833   -7.0641 C.ar      1 <0>        -0.0760
     21 C15        -0.1430   -1.0655   -7.6652 C.ar      1 <0>        -0.1115
     22 C16        -1.4339   -1.1522   -7.1752 C.ar      1 <0>        -0.0390
     23 C17        -1.7062   -1.9574   -6.0835 C.ar      1 <0>        -0.1114
     24 C18        -0.6897   -2.6790   -5.4867 C.ar      1 <0>        -0.0940
     25 Cl1        -2.7114   -0.2506   -7.9293 Cl        1 <0>        -0.0862
     26 C19         3.4946   -6.0859   -9.2466 C.3       1 <0>         0.5767
     27 F1          4.8288   -6.0907   -9.6674 F         1 <0>        -0.1613
     28 F2          3.1159   -7.3825   -8.8822 F         1 <0>        -0.1724
     29 F3          2.6780   -5.6376  -10.2903 F         1 <0>        -0.1723
     30 C20         4.5975   -1.3797   -3.7632 C.ar      1 <0>        -0.0478
     31 C21         4.4899   -1.4783   -2.3755 C.ar      1 <0>        -0.0536
     32 C22         5.2241   -0.6368   -1.5674 C.ar      1 <0>        -0.1546
     33 C23         6.0698    0.3086   -2.1328 C.ar      1 <0>         0.1185
     34 C24         6.1791    0.4098   -3.5135 C.ar      1 <0>        -0.2136
     35 C25         5.4529   -0.4329   -4.3277 C.ar      1 <0>        -0.0473
     36 O2          6.7915    1.1366   -1.3333 O.3       1 <0>        -0.3220
     37 C26         7.6415    2.0854   -1.9809 C.3       1 <0>         0.0291
     38 H2          0.8177    2.1477   -0.4125 H         1 <0>         0.0525
     39 H3         -0.7417    1.9695   -1.2520 H         1 <0>         0.0516
     40 H4         -0.6975    2.1202    0.5210 H         1 <0>         0.0934
     41 H5          0.9449    1.4188   -2.3607 H         1 <0>         0.1179
     42 H6          2.0692    0.2307   -4.1952 H         1 <0>         0.1153
     43 H7          1.3855   -3.4985   -2.1756 H         1 <0>         0.1236
     44 H8          0.2729   -2.2920   -0.3458 H         1 <0>         0.1219
     45 H9          1.8816   -1.7154   -7.4464 H         1 <0>         0.1189
     46 H10         0.0702   -0.4369   -8.5172 H         1 <0>         0.1262
     47 H11        -2.7137   -2.0252   -5.7003 H         1 <0>         0.1277
     48 H12        -0.9030   -3.3113   -4.6375 H         1 <0>         0.1271
     49 H13         3.8319   -2.2128   -1.9351 H         1 <0>         0.1298
     50 H14         5.1413   -0.7125   -0.4932 H         1 <0>         0.1250
     51 H15         6.8374    1.1464   -3.9498 H         1 <0>         0.1228
     52 H16         5.5420   -0.3568   -5.4013 H         1 <0>         0.1265
     53 H17         8.3731    1.5589   -2.5938 H         1 <0>         0.0540
     54 H18         7.0408    2.7391   -2.6133 H         1 <0>         0.0528
     55 H19         8.1589    2.6819   -1.2296 H         1 <0>         0.0945
@<TRIPOS>BOND
     1    1    2 1
     2    1   38 1
     3    1   39 1
     4    1   40 1
     5    2    3 1
     6    3    8 ar
     7    3    4 ar
     8    4    5 ar
     9    4   41 1
    10    5    6 ar
    11    5   42 1
    12    6    7 ar
    13    6    9 1
    14    7    8 ar
    15    7   43 1
    16    8   44 1
    17    9   17 1
    18    9   10 2
    19   10   11 1
    20   10   30 1
    21   11   12 2
    22   12   16 1
    23   12   13 1
    24   13   14 2
    25   14   15 1
    26   14   26 1
    27   15   16 1
    28   16   17 1
    29   17   18 1
    30   17   19 1
    31   19   24 ar
    32   19   20 ar
    33   20   21 ar
    34   20   45 1
    35   21   22 ar
    36   21   46 1
    37   22   23 ar
    38   22   25 1
    39   23   24 ar
    40   23   47 1
    41   24   48 1
    42   26   27 1
    43   26   28 1
    44   26   29 1
    45   30   35 ar
    46   30   31 ar
    47   31   32 ar
    48   31   49 1
    49   32   33 ar
    50   32   50 1
    51   33   34 ar
    52   33   36 1
    53   34   35 ar
    54   34   51 1
    55   35   52 1
    56   36   37 1
    57   37   53 1
    58   37   54 1
    59   37   55 1
@<TRIPOS>MOLECULE
ZINC40000188
   61    64     0     0     0
SMALL
USER_CHARGES

@<TRIPOS>ATOM
      1 C1         -5.1094   -3.7555   -5.2996 C.3       1 <0>        -0.1503
      2 C2         -4.0811   -4.5231   -4.4664 C.3       1 <0>        -0.1224
      3 C3         -2.6829   -4.2928   -5.0432 C.3       1 <0>         0.0561
      4 O1         -1.7225   -5.0098   -4.2649 O.3       1 <0>        -0.3125
      5 C4         -0.4238   -4.9114   -4.6457 C.ar      1 <0>         0.1444
      6 C5         -0.0809   -4.1330   -5.7460 C.ar      1 <0>        -0.2205
      7 C6          1.2353   -4.0305   -6.1356 C.ar      1 <0>        -0.0301
      8 C7          2.2283   -4.7100   -5.4230 C.ar      1 <0>        -0.1712
      9 C8          1.8793   -5.4909   -4.3173 C.ar      1 <0>        -0.0334
     10 C9          0.5610   -5.5843   -3.9313 C.ar      1 <0>        -0.1344
     11 C10         0.1842   -6.4212   -2.7361 C.3       1 <0>        -0.0998
     12 C11         3.6411   -4.6032   -5.8375 C.2       1 <0>         0.5094
     13 O2          4.4909   -5.2738   -5.2811 O.2       1 <0>        -0.4676
     14 C12         4.0204   -3.6899   -6.9190 C.2       1 <0>        -0.4793
     15 C13         4.5402   -4.0333   -8.1216 C.2       1 <0>         0.2697
     16 C14         4.7784   -2.8106   -8.9143 C.2       1 <0>         0.5108
     17 O3          5.2395   -2.7874  -10.0386 O.2       1 <0>        -0.4864
     18 N1          4.4097   -1.7261   -8.2087 N.am      1 <0>        -0.4982
     19 C15         3.9010   -2.1837   -6.9103 C.3       1 <0>         0.2663
     20 H1          2.8580   -1.8910   -6.7894 H         1 <0>         0.0883
     21 C16         4.7351   -1.6041   -5.7971 C.ar      1 <0>        -0.0742
     22 C17         6.1116   -1.5596   -5.9160 C.ar      1 <0>        -0.0884
     23 C18         6.8768   -1.0279   -4.8948 C.ar      1 <0>        -0.1197
     24 C19         6.2654   -0.5404   -3.7549 C.ar      1 <0>        -0.0929
     25 C20         4.8888   -0.5841   -3.6364 C.ar      1 <0>        -0.1195
     26 C21         4.1234   -1.1118   -4.6594 C.ar      1 <0>        -0.0951
     27 C22         7.0995    0.0383   -2.6412 C.3       1 <0>        -0.1090
     28 C23         4.4909   -0.4061   -8.6361 C.2       1 <0>         0.3255
     29 N2          4.1596    0.7125   -8.0106 N.2       1 <0>        -0.3105
     30 N3          4.2991    1.8450   -8.5479 N.2       1 <0>        -0.2493
     31 C24         4.7863    1.9841   -9.7728 C.2       1 <0>        -0.0275
     32 S1          5.0807    0.2671  -10.1868 S.3       1 <0>         0.0812
     33 S2          5.0692    3.4424  -10.7205 S.3       1 <0>         0.0274
     34 C25         4.5329    4.7870   -9.6274 C.3       1 <0>        -0.1139
     35 C26         4.7271    6.1289  -10.3364 C.3       1 <0>        -0.1376
     36 O4          4.8004   -5.2963   -8.5313 O.3       1 <0>        -0.6333
     37 H2         -4.8764   -2.6910   -5.2735 H         1 <0>         0.0576
     38 H3         -5.0787   -4.1090   -6.3302 H         1 <0>         0.0578
     39 H4         -6.1055   -3.9196   -4.8887 H         1 <0>         0.0629
     40 H5         -4.1118   -4.1697   -3.4357 H         1 <0>         0.0723
     41 H6         -4.3141   -5.5876   -4.4924 H         1 <0>         0.0725
     42 H7         -2.6522   -4.6463   -6.0738 H         1 <0>         0.0626
     43 H8         -2.4499   -3.2283   -5.0171 H         1 <0>         0.0624
     44 H9         -0.8484   -3.6086   -6.2958 H         1 <0>         0.1278
     45 H10         1.5007   -3.4264   -6.9906 H         1 <0>         0.1338
     46 H11         2.6432   -6.0173   -3.7642 H         1 <0>         0.1369
     47 H12        -0.0234   -7.4417   -3.0580 H         1 <0>         0.0649
     48 H13         1.0076   -6.4260   -2.0218 H         1 <0>         0.0641
     49 H14        -0.7039   -6.0014   -2.2639 H         1 <0>         0.0666
     50 H15         6.5893   -1.9405   -6.8066 H         1 <0>         0.1098
     51 H16         7.9522   -0.9938   -4.9874 H         1 <0>         0.1159
     52 H17         4.4111   -0.2035   -2.7456 H         1 <0>         0.1178
     53 H18         3.0477   -1.1426   -4.5684 H         1 <0>         0.1198
     54 H19         7.2342    1.1073   -2.8059 H         1 <0>         0.0649
     55 H20         6.5949   -0.1218   -1.6884 H         1 <0>         0.0629
     56 H21         8.0729   -0.4521   -2.6238 H         1 <0>         0.0624
     57 H22         3.4795    4.6559   -9.3801 H         1 <0>         0.0951
     58 H23         5.1257    4.7702   -8.7128 H         1 <0>         0.0951
     59 H24         4.1344    6.1457  -11.2509 H         1 <0>         0.0666
     60 H25         4.4049    6.9368   -9.6796 H         1 <0>         0.0788
     61 H26         5.7806    6.2600  -10.5837 H         1 <0>         0.0666
@<TRIPOS>BOND
     1    1    2 1
     2    1   37 1
     3    1   38 1
     4    1   39 1
     5    2    3 1
     6    2   40 1
     7    2   41 1
     8    3    4 1
     9    3   42 1
    10    3   43 1
    11    4    5 1
    12    5   10 ar
    13    5    6 ar
    14    6    7 ar
    15    6   44 1
    16    7    8 ar
    17    7   45 1
    18    8    9 ar
    19    8   12 1
    20    9   10 ar
    21    9   46 1
    22   10   11 1
    23   11   47 1
    24   11   48 1
    25   11   49 1
    26   12   13 2
    27   12   14 1
    28   14   19 1
    29   14   15 2
    30   15   16 1
    31   15   36 1
    32   16   17 2
    33   16   18 am
    34   18   19 1
    35   18   28 1
    36   19   20 1
    37   19   21 1
    38   21   26 ar
    39   21   22 ar
    40   22   23 ar
    41   22   50 1
    42   23   24 ar
    43   23   51 1
    44   24   25 ar
    45   24   27 1
    46   25   26 ar
    47   25   52 1
    48   26   53 1
    49   27   54 1
    50   27   55 1
    51   27   56 1
    52   28   32 1
    53   28   29 2
    54   29   30 1
    55   30   31 2
    56   31   32 1
    57   31   33 1
    58   33   34 1
    59   34   35 1
    60   34   57 1
    61   34   58 1
    62   35   59 1
    63   35   60 1
    64   35   61 1
@<TRIPOS>MOLECULE
ZINC40844554
   61    65     0     0     0
SMALL
USER_CHARGES

@<TRIPOS>ATOM
      1 C1         -0.4407    1.4784   -0.2703 C.3       1 <0>        -0.1363
      2 C2         -0.2015   -0.0266   -0.1330 C.3       1 <0>         0.0610
      3 O1          0.6865   -0.4637   -1.1638 O.3       1 <0>        -0.2850
      4 C3          1.0022   -1.7744   -1.1846 C.2       1 <0>         0.4910
      5 O2          0.4850   -2.6073   -0.2589 O.3       1 <0>        -0.6644
      6 C4          1.8439   -2.2574   -2.1412 C.2       1 <0>        -0.4071
      7 C5          2.3828   -1.3891   -3.0961 C.2       1 <0>         0.4740
      8 O3          3.2159   -1.8418   -4.0485 O.3       1 <0>        -0.2524
      9 C6          3.2369   -3.1612   -4.3659 C.ar      1 <0>         0.1267
     10 C7          3.7667   -3.5394   -5.6095 C.ar      1 <0>        -0.1109
     11 C8          3.8169   -4.8421   -5.9889 C.ar      1 <0>        -0.0923
     12 C9          3.3298   -5.8377   -5.1243 C.ar      1 <0>        -0.0713
     13 C10         3.3633   -7.1960   -5.4821 C.ar      1 <0>        -0.1022
     14 C11         2.8810   -8.1313   -4.6186 C.ar      1 <0>        -0.1278
     15 C12         2.3538   -7.7625   -3.3822 C.ar      1 <0>        -0.1191
     16 C13         2.3059   -6.4567   -3.0021 C.ar      1 <0>        -0.1013
     17 C14         2.7945   -5.4624   -3.8680 C.ar      1 <0>        -0.0146
     18 C15         2.7584   -4.1034   -3.5041 C.ar      1 <0>        -0.1238
     19 C16         2.1932   -3.7194   -2.1607 C.3       1 <0>         0.1010
     20 H1          1.2958   -4.3072   -1.9676 H         1 <0>         0.0856
     21 C17         3.2113   -4.0032   -1.0865 C.ar      1 <0>        -0.0404
     22 C18         4.4348   -3.3603   -1.1066 C.ar      1 <0>        -0.1041
     23 C19         5.3687   -3.6206   -0.1212 C.ar      1 <0>        -0.1250
     24 C20         5.0789   -4.5235    0.8845 C.ar      1 <0>        -0.1351
     25 C21         3.8550   -5.1658    0.9052 C.ar      1 <0>        -0.1253
     26 C22         2.9195   -4.9023   -0.0778 C.ar      1 <0>        -0.1010
     27 N1          2.0659   -0.0979   -3.0615 N.2       1 <0>        -0.6181
     28 C23         2.5763    0.7410   -3.9709 C.2       1 <0>         0.5129
     29 O4          3.3318    0.3215   -4.8312 O.2       1 <0>        -0.5571
     30 C24         2.2246    2.1742   -3.9324 C.2       1 <0>        -0.0544
     31 C25         2.7450    3.0293   -4.8595 C.2       1 <0>        -0.0007
     32 C26         2.5317    4.4753   -4.7253 C.ar      1 <0>        -0.0774
     33 C27         2.4973    5.0673   -3.4566 C.ar      1 <0>        -0.0942
     34 C28         2.2970    6.4260   -3.3399 C.ar      1 <0>        -0.1191
     35 C29         2.1297    7.2049   -4.4721 C.ar      1 <0>        -0.1118
     36 C30         2.1619    6.6279   -5.7301 C.ar      1 <0>        -0.1252
     37 C31         2.3674    5.2717   -5.8655 C.ar      1 <0>        -0.0938
     38 C32         1.3374    2.6668   -2.9222 C.1       1 <0>         0.2672
     39 N2          0.6335    3.0577   -2.1207 N.1       1 <0>        -0.4165
     40 H2          0.5084    2.0068   -0.1805 H         1 <0>         0.0641
     41 H3         -0.8829    1.6886   -1.2441 H         1 <0>         0.0638
     42 H4         -1.1180    1.8118    0.5159 H         1 <0>         0.0580
     43 H5          0.2407   -0.2368    0.8408 H         1 <0>         0.0490
     44 H6         -1.1506   -0.5550   -0.2228 H         1 <0>         0.0490
     45 H7          4.1416   -2.7788   -6.2783 H         1 <0>         0.1341
     46 H8          4.2287   -5.1120   -6.9501 H         1 <0>         0.1322
     47 H9          3.7689   -7.4963   -6.4369 H         1 <0>         0.1226
     48 H10         2.9070   -9.1748   -4.8958 H         1 <0>         0.1172
     49 H11         1.9773   -8.5246   -2.7159 H         1 <0>         0.1189
     50 H12         1.8946   -6.1856   -2.0410 H         1 <0>         0.1303
     51 H13         4.6613   -2.6548   -1.8924 H         1 <0>         0.1111
     52 H14         6.3249   -3.1188   -0.1374 H         1 <0>         0.1129
     53 H15         5.8088   -4.7275    1.6540 H         1 <0>         0.1119
     54 H16         3.6287   -5.8716    1.6908 H         1 <0>         0.1138
     55 H17         1.9619   -5.4013   -0.0596 H         1 <0>         0.1174
     56 H18         3.3137    2.6423   -5.6920 H         1 <0>         0.1572
     57 H19         2.6269    4.4610   -2.5723 H         1 <0>         0.1257
     58 H20         2.2701    6.8843   -2.3623 H         1 <0>         0.1237
     59 H21         1.9728    8.2689   -4.3734 H         1 <0>         0.1216
     60 H22         2.0298    7.2427   -6.6081 H         1 <0>         0.1243
     61 H23         2.3967    4.8237   -6.8478 H         1 <0>         0.1297
@<TRIPOS>BOND
     1    1    2 1
     2    1   40 1
     3    1   41 1
     4    1   42 1
     5    2    3 1
     6    2   43 1
     7    2   44 1
     8    3    4 1
     9    4    5 1
    10    4    6 2
    11    6   19 1
    12    6    7 1
    13    7    8 1
    14    7   27 2
    15    8    9 1
    16    9   18 ar
    17    9   10 ar
    18   10   11 ar
    19   10   45 1
    20   11   12 ar
    21   11   46 1
    22   12   17 ar
    23   12   13 ar
    24   13   14 ar
    25   13   47 1
    26   14   15 ar
    27   14   48 1
    28   15   16 ar
    29   15   49 1
    30   16   17 ar
    31   16   50 1
    32   17   18 ar
    33   18   19 1
    34   19   20 1
    35   19   21 1
    36   21   26 ar
    37   21   22 ar
    38   22   23 ar
    39   22   51 1
    40   23   24 ar
    41   23   52 1
    42   24   25 ar
    43   24   53 1
    44   25   26 ar
    45   25   54 1
    46   26   55 1
    47   27   28 1
    48   28   29 2
    49   28   30 1
    50   30   31 2
    51   30   38 1
    52   31   32 1
    53   31   56 1
    54   32   37 ar
    55   32   33 ar
    56   33   34 ar
    57   33   57 1
    58   34   35 ar
    59   34   58 1
    60   35   36 ar
    61   35   59 1
    62   36   37 ar
    63   36   60 1
    64   37   61 1
    65   38   39 3
@<TRIPOS>MOLECULE
ZINC08818140
   51    55     0     0     0
SMALL
USER_CHARGES
(5S)-1-(4,6-dimethyl-1,3-benzothiazol-2-yl)-4-(furan-2-carbonyl)-3-hydroxy-5-(p-tolyl)-5H-pyrrol-2-one
@<TRIPOS>ATOM
      1 C1          1.9720    6.8015    5.4889 C.3       1 <0>        -0.1121
      2 C2          2.5457    6.5727    4.1143 C.ar      1 <0>        -0.0889
      3 C3          2.1421    7.3654    3.0562 C.ar      1 <0>        -0.1202
      4 C4          2.6687    7.1558    1.7954 C.ar      1 <0>        -0.1009
      5 C5          3.5985    6.1532    1.5926 C.ar      1 <0>        -0.0956
      6 C6          3.9978    5.3567    2.6495 C.ar      1 <0>        -0.0818
      7 C7          3.4751    5.5698    3.9114 C.ar      1 <0>        -0.1188
      8 C8          4.1722    5.9244    0.2180 C.3       1 <0>         0.2673
      9 H1          3.5497    6.4671   -0.5086 H         1 <0>         0.0875
     10 C9          5.6162    6.3673    0.1772 C.2       1 <0>        -0.4843
     11 C10         6.3512    5.2737   -0.1313 C.2       1 <0>         0.2761
     12 C11         5.4526    4.1144   -0.2935 C.2       1 <0>         0.5134
     13 O1          5.8124    2.9867   -0.5682 O.2       1 <0>        -0.4651
     14 N1          4.1762    4.4905   -0.0952 N.am      1 <0>        -0.5079
     15 C12         3.0647    3.6696   -0.1677 C.2       1 <0>         0.4226
     16 N2          3.0045    2.3872   -0.4431 N.2       1 <0>        -0.5352
     17 C13         1.8390    1.7064   -0.4783 C.ar      1 <0>         0.1144
     18 C14         1.6370    0.3347   -0.7575 C.ar      1 <0>        -0.0364
     19 C15         0.3764   -0.2024   -0.7531 C.ar      1 <0>        -0.1109
     20 C16        -0.7410    0.5725   -0.4767 C.ar      1 <0>        -0.0819
     21 C17        -0.5806    1.9174   -0.1988 C.ar      1 <0>        -0.0646
     22 C18         0.6783    2.4642   -0.2005 C.ar      1 <0>        -0.1563
     23 S1          1.3454    4.0854    0.0883 S.3       1 <0>         0.0020
     24 C19        -2.1154   -0.0457   -0.4790 C.3       1 <0>        -0.1082
     25 C20         2.8211   -0.5458   -1.0638 C.3       1 <0>        -0.1081
     26 O2          7.6981    5.2465   -0.2654 O.3       1 <0>        -0.6336
     27 C21         6.1237    7.7218    0.4244 C.2       1 <0>         0.5467
     28 O3          6.8336    7.9395    1.3904 O.2       1 <0>        -0.4471
     29 C22         5.7766    8.8129   -0.4910 C.2       1 <0>        -0.0636
     30 C23         6.2495   10.1060   -0.4290 C.2       1 <0>        -0.1535
     31 C24         5.6591   10.7986   -1.4959 C.2       1 <0>        -0.2262
     32 C25         4.8596    9.9234   -2.1470 C.2       1 <0>        -0.0290
     33 O4          4.9327    8.7316   -1.5406 O.3       1 <0>        -0.1456
     34 H2          1.2552    7.6351    5.4529 H         1 <0>         0.0622
     35 H3          2.7843    7.0463    6.1891 H         1 <0>         0.0670
     36 H4          1.4578    5.8901    5.8280 H         1 <0>         0.0656
     37 H5          1.4157    8.1487    3.2146 H         1 <0>         0.1192
     38 H6          2.3534    7.7751    0.9687 H         1 <0>         0.1208
     39 H7          4.7209    4.5706    2.4902 H         1 <0>         0.1149
     40 H8          3.7901    4.9502    4.7381 H         1 <0>         0.1182
     41 H9          0.2496   -1.2528   -0.9700 H         1 <0>         0.1285
     42 H10        -1.4409    2.5347    0.0139 H         1 <0>         0.1278
     43 H11        -2.8640    0.7238   -0.2393 H         1 <0>         0.0655
     44 H12        -2.1585   -0.8464    0.2740 H         1 <0>         0.0704
     45 H13        -2.3268   -0.4658   -1.4734 H         1 <0>         0.0704
     46 H14         2.4751   -1.5725   -1.2539 H         1 <0>         0.0617
     47 H15         3.5107   -0.5440   -0.2068 H         1 <0>         0.0738
     48 H16         3.3417   -0.1635   -1.9542 H         1 <0>         0.0739
     49 H17         6.9413   10.5066    0.2972 H         1 <0>         0.1541
     50 H18         5.8106   11.8379   -1.7475 H         1 <0>         0.1493
     51 H19         4.2594   10.1490   -3.0161 H         1 <0>         0.2026
@<TRIPOS>BOND
     1    1    2 1
     2    1   34 1
     3    1   35 1
     4    1   36 1
     5    2    7 ar
     6    2    3 ar
     7    3    4 ar
     8    3   37 1
     9    4    5 ar
    10    4   38 1
    11    5    6 ar
    12    5    8 1
    13    6    7 ar
    14    6   39 1
    15    7   40 1
    16    8    9 1
    17    8   14 1
    18    8   10 1
    19   10   11 2
    20   10   27 1
    21   11   12 1
    22   11   26 1
    23   12   13 2
    24   12   14 am
    25   14   15 1
    26   15   23 1
    27   15   16 2
    28   16   17 1
    29   17   22 ar
    30   17   18 ar
    31   18   19 ar
    32   18   25 1
    33   19   20 ar
    34   19   41 1
    35   20   21 ar
    36   20   24 1
    37   21   22 ar
    38   21   42 1
    39   22   23 1
    40   24   43 1
    41   24   44 1
    42   24   45 1
    43   25   46 1
    44   25   47 1
    45   25   48 1
    46   27   28 2
    47   27   29 1
    48   29   33 1
    49   29   30 2
    50   30   31 1
    51   30   49 1
    52   31   32 2
    53   31   50 1
    54   32   33 1
    55   32   51 1
@<TRIPOS>MOLECULE
ZINC17174698
   31    33     0     0     0
SMALL
USER_CHARGES
3,4-bis(4-bromophenyl)-6-oxo-1H-pyridazine-5-carbonitrile
@<TRIPOS>ATOM
      1 C1         -2.0908    2.1560    1.1866 C.ar      1 <0>        -0.0883
      2 C2         -3.2289    2.9325    1.2448 C.ar      1 <0>        -0.0855
      3 C3         -3.4877    3.8627    0.2520 C.ar      1 <0>        -0.0899
      4 C4         -2.6039    4.0232   -0.8021 C.ar      1 <0>        -0.0867
      5 C5         -1.4596    3.2566   -0.8691 C.ar      1 <0>        -0.1010
      6 C6         -1.1928    2.3168    0.1290 C.ar      1 <0>        -0.0207
      7 C7          0.0312    1.4917    0.0631 C.ar      1 <0>         0.0566
      8 C8          1.3044    2.0674    0.2056 C.ar      1 <0>        -0.1992
      9 C9          2.4271    1.1983    0.1226 C.ar      1 <0>         0.4609
     10 O1          3.5574    1.6404    0.2391 O.3       1 <0>        -0.5764
     11 N1          2.2303   -0.1166   -0.0848 N.ar      1 <0>        -0.3724
     12 N2          1.0605   -0.6249   -0.2126 N.ar      1 <0>        -0.1431
     13 C10        -0.0384    0.0878   -0.1527 C.ar      1 <0>        -0.0654
     14 C11        -1.3569   -0.5718   -0.3099 C.ar      1 <0>         0.0362
     15 C12        -1.5760   -1.8359    0.2354 C.ar      1 <0>        -0.0968
     16 C13        -2.8067   -2.4430    0.0908 C.ar      1 <0>        -0.0900
     17 C14        -3.8192   -1.8037   -0.6037 C.ar      1 <0>        -0.1022
     18 C15        -3.6052   -0.5506   -1.1515 C.ar      1 <0>        -0.0867
     19 C16        -2.3800    0.0676   -1.0082 C.ar      1 <0>        -0.1129
     20 Br1        -5.5005   -2.6454   -0.8051 Br        1 <0>        -0.0699
     21 C17         1.4656    3.4732    0.4252 C.1       1 <0>         0.2972
     22 N3          1.5935    4.5885    0.5994 N.1       1 <0>        -0.4602
     23 Br2        -5.0541    4.9186    0.3363 Br        1 <0>        -0.0591
     24 H1         -1.8922    1.4281    1.9593 H         1 <0>         0.1345
     25 H2         -3.9220    2.8121    2.0643 H         1 <0>         0.1336
     26 H3         -2.8115    4.7500   -1.5735 H         1 <0>         0.1334
     27 H4         -0.7714    3.3824   -1.6919 H         1 <0>         0.1329
     28 H5         -0.7852   -2.3376    0.7732 H         1 <0>         0.1365
     29 H6         -2.9788   -3.4206    0.5163 H         1 <0>         0.1287
     30 H7         -4.3985   -0.0561   -1.6924 H         1 <0>         0.1263
     31 H8         -2.2138    1.0450   -1.4367 H         1 <0>         0.1296
@<TRIPOS>BOND
     1    1    6 ar
     2    1    2 ar
     3    1   24 1
     4    2    3 ar
     5    2   25 1
     6    3    4 ar
     7    3   23 1
     8    4    5 ar
     9    4   26 1
    10    5    6 ar
    11    5   27 1
    12    6    7 1
    13    7   13 ar
    14    7    8 ar
    15    8    9 ar
    16    8   21 1
    17    9   10 1
    18    9   11 ar
    19   11   12 ar
    20   12   13 ar
    21   13   14 1
    22   14   19 ar
    23   14   15 ar
    24   15   16 ar
    25   15   28 1
    26   16   17 ar
    27   16   29 1
    28   17   18 ar
    29   17   20 1
    30   18   19 ar
    31   18   30 1
    32   19   31 1
    33   21   22 3
@<TRIPOS>MOLECULE
ZINC02582292
   45    48     0     0     0
SMALL
USER_CHARGES

@<TRIPOS>ATOM
      1 C1          0.2999    1.5463    0.1642 C.3       1 <0>        -0.1417
      2 C2          0.3023    0.0163    0.1677 C.3       1 <0>        -0.0489
      3 C3          0.6736   -0.4906   -1.2289 C.3       1 <0>        -0.0490
      4 C4          0.8435   -1.9880   -1.1849 C.2       1 <0>         0.1157
      5 C5          1.0863   -2.6836   -0.0036 C.2       1 <0>        -0.2816
      6 C6          1.1863   -4.0870   -0.3516 C.2       1 <0>        -0.1049
      7 C7          1.0028   -4.1513   -1.7005 C.2       1 <0>         0.0318
      8 N1          0.7989   -2.8772   -2.1844 N.pl3     1 <0>        -0.3425
      9 C8          0.5756   -2.5580   -3.5315 C.ar      1 <0>         0.0063
     10 C9         -0.6639   -2.0787   -3.9351 C.ar      1 <0>        -0.0845
     11 C10        -0.8842   -1.7644   -5.2607 C.ar      1 <0>        -0.1428
     12 C11         0.1346   -1.9274   -6.1919 C.ar      1 <0>         0.1494
     13 C12         1.3747   -2.4071   -5.7875 C.ar      1 <0>        -0.1412
     14 C13         1.5957   -2.7157   -4.4606 C.ar      1 <0>        -0.0751
     15 S1         -0.1462   -1.5268   -7.8846 S.3       1 <0>        -0.9145
     16 C14         1.0195   -5.3872   -2.5127 C.ar      1 <0>         0.0070
     17 C15         1.6543   -6.5330   -2.0317 C.ar      1 <0>        -0.1037
     18 C16         1.6661   -7.6830   -2.7936 C.ar      1 <0>        -0.0897
     19 C17         1.0501   -7.7016   -4.0333 C.ar      1 <0>        -0.0940
     20 C18         0.4188   -6.5680   -4.5158 C.ar      1 <0>        -0.0813
     21 C19         0.3954   -5.4138   -3.7606 C.ar      1 <0>        -0.1044
     22 Br1         1.0719   -9.2816   -5.0720 Br        1 <0>        -0.0591
     23 C20         1.2014   -2.0003    1.2899 C.2       1 <0>         0.4351
     24 O1          1.2118   -2.6000    2.3448 O.2       1 <0>        -0.4754
     25 C21         1.3062   -0.4840    1.2112 C.3       1 <0>        -0.1535
     26 C22        -1.0955   -0.4887    0.5308 C.3       1 <0>        -0.1520
     27 H1          1.2969    1.9106   -0.0835 H         1 <0>         0.0596
     28 H2         -0.4133    1.9068   -0.5771 H         1 <0>         0.0620
     29 H3          0.0143    1.9115    1.1507 H         1 <0>         0.0605
     30 H4         -0.1193   -0.2346   -1.9317 H         1 <0>         0.0882
     31 H5          1.6073   -0.0274   -1.5479 H         1 <0>         0.0899
     32 H6          1.3693   -4.9126    0.3202 H         1 <0>         0.1490
     33 H7         -1.4556   -1.9524   -3.2114 H         1 <0>         0.1141
     34 H8         -1.8482   -1.3920   -5.5745 H         1 <0>         0.1228
     35 H9          2.1667   -2.5340   -6.5106 H         1 <0>         0.1221
     36 H10         2.5607   -3.0843   -4.1454 H         1 <0>         0.1127
     37 H11         2.1357   -6.5195   -1.0650 H         1 <0>         0.1341
     38 H12         2.1571   -8.5704   -2.4224 H         1 <0>         0.1328
     39 H13        -0.0597   -6.5884   -5.4838 H         1 <0>         0.1339
     40 H14        -0.1011   -4.5313   -4.1362 H         1 <0>         0.1433
     41 H15         2.3160   -0.2010    0.9143 H         1 <0>         0.0983
     42 H16         1.0731   -0.0489    2.1830 H         1 <0>         0.0902
     43 H17        -1.8150   -0.1260   -0.2033 H         1 <0>         0.0606
     44 H18        -1.0985   -1.5787    0.5346 H         1 <0>         0.0617
     45 H19        -1.3691   -0.1213    1.5199 H         1 <0>         0.0583
@<TRIPOS>BOND
     1    1    2 1
     2    1   27 1
     3    1   28 1
     4    1   29 1
     5    2   25 1
     6    2    3 1
     7    2   26 1
     8    3    4 1
     9    3   30 1
    10    3   31 1
    11    4    8 1
    12    4    5 2
    13    5    6 1
    14    5   23 1
    15    6    7 2
    16    6   32 1
    17    7    8 1
    18    7   16 1
    19    8    9 1
    20    9   14 ar
    21    9   10 ar
    22   10   11 ar
    23   10   33 1
    24   11   12 ar
    25   11   34 1
    26   12   13 ar
    27   12   15 1
    28   13   14 ar
    29   13   35 1
    30   14   36 1
    31   16   21 ar
    32   16   17 ar
    33   17   18 ar
    34   17   37 1
    35   18   19 ar
    36   18   38 1
    37   19   20 ar
    38   19   22 1
    39   20   21 ar
    40   20   39 1
    41   21   40 1
    42   23   24 2
    43   23   25 1
    44   25   41 1
    45   25   42 1
    46   26   43 1
    47   26   44 1
    48   26   45 1
@<TRIPOS>MOLECULE
ZINC40285815
   27    29     0     0     0
SMALL
USER_CHARGES

@<TRIPOS>ATOM
      1 C1          1.2100   -0.7931   -0.0190 C.ar      1 <0>        -0.0939
      2 C2          2.4290   -0.1416   -0.0044 C.ar      1 <0>        -0.0827
      3 C3          2.4741    1.2393    0.0564 C.ar      1 <0>        -0.0976
      4 C4          1.2996    1.9679    0.1026 C.ar      1 <0>        -0.0844
      5 C5          0.0810    1.3158    0.0880 C.ar      1 <0>        -0.1007
      6 C6          0.0361   -0.0645    0.0272 C.ar      1 <0>        -0.0542
      7 C7         -1.2927   -0.7751    0.0108 C.3       1 <0>         0.0570
      8 H1         -2.0926   -0.0537    0.1776 H         1 <0>         0.1160
      9 C8         -1.4890   -1.4425   -1.3261 C.ar      1 <0>        -0.1448
     10 C9         -0.6787   -2.5073   -1.6895 C.ar      1 <0>        -0.0895
     11 C10        -0.8471   -3.1271   -2.9082 C.ar      1 <0>        -0.1203
     12 C11        -1.8396   -2.6795   -3.7810 C.ar      1 <0>         0.1097
     13 C12        -2.6573   -1.6019   -3.4094 C.ar      1 <0>        -0.0419
     14 C13        -2.4777   -0.9932   -2.1776 C.ar      1 <0>        -0.0531
     15 O1         -3.5106   -1.3985   -4.4390 O.3       1 <0>        -0.2747
     16 C14        -3.2360   -2.3012   -5.3959 C.2       1 <0>         0.5155
     17 O2         -3.8878   -2.4007   -6.5761 O.3       1 <0>        -0.6436
     18 N1         -2.2475   -3.0680   -5.0205 N.2       1 <0>        -0.6097
     19 Br1        -1.3275   -2.1327    1.4323 Br        1 <0>        -0.1480
     20 I1          4.3215    2.2272    0.0792 I         1 <0>        -0.0503
     21 H2          1.1747   -1.8713   -0.0710 H         1 <0>         0.1379
     22 H3          3.3461   -0.7109   -0.0402 H         1 <0>         0.1305
     23 H4          1.3346    3.0463    0.1504 H         1 <0>         0.1299
     24 H5         -0.8363    1.8848    0.1241 H         1 <0>         0.1331
     25 H6          0.0894   -2.8526   -1.0133 H         1 <0>         0.1203
     26 H7         -0.2133   -3.9559   -3.1871 H         1 <0>         0.1219
     27 H8         -3.1078   -0.1659   -1.8861 H         1 <0>         0.1176
@<TRIPOS>BOND
     1    1    6 ar
     2    1    2 ar
     3    1   21 1
     4    2    3 ar
     5    2   22 1
     6    3    4 ar
     7    3   20 1
     8    4    5 ar
     9    4   23 1
    10    5    6 ar
    11    5   24 1
    12    6    7 1
    13    7    8 1
    14    7    9 1
    15    7   19 1
    16    9   14 ar
    17    9   10 ar
    18   10   11 ar
    19   10   25 1
    20   11   12 ar
    21   11   26 1
    22   12   18 1
    23   12   13 ar
    24   13   14 ar
    25   13   15 1
    26   14   27 1
    27   15   16 1
    28   16   17 1
    29   16   18 2
@<TRIPOS>MOLECULE
ZINC59239798
   43    45     0     0     0
SMALL
USER_CHARGES

@<TRIPOS>ATOM
      1 C1          0.2531    0.9378    0.7839 C.3       1 <0>        -0.0827
      2 C2          0.3175   -0.5364    0.4780 C.ar      1 <0>        -0.1390
      3 C3          0.1513   -0.9810   -0.8192 C.ar      1 <0>        -0.0535
      4 C4          0.2101   -2.3331   -1.1013 C.ar      1 <0>        -0.1888
      5 C5          0.4355   -3.2458   -0.0854 C.ar      1 <0>         0.0465
      6 C6          0.6021   -2.8073    1.2146 C.ar      1 <0>        -0.2522
      7 C7          0.5496   -1.4487    1.4994 C.ar      1 <0>         0.3032
      8 N1          0.7241   -1.0014    2.8110 N.2       1 <0>        -1.0735
      9 S1          1.0007   -2.0905    4.0273 S.o2      1 <0>         2.6000
     10 O1         -0.1842   -2.8640    4.1571 O.2       1 <0>        -1.0210
     11 O2          2.2686   -2.6769    3.7669 O.2       1 <0>        -1.0202
     12 C8          1.1683   -1.1715    5.5213 C.ar      1 <0>        -0.6025
     13 C9          2.4123   -0.7162    5.9167 C.ar      1 <0>        -0.0172
     14 C10         2.5441    0.0051    7.0883 C.ar      1 <0>        -0.1168
     15 C11         1.4311    0.2714    7.8653 C.ar      1 <0>        -0.0528
     16 C12         0.1866   -0.1843    7.4693 C.ar      1 <0>        -0.1169
     17 C13         0.0549   -0.9011    6.2948 C.ar      1 <0>        -0.0176
     18 Br1         1.6109    1.2577    9.4687 Br        1 <0>        -0.0540
     19 Cl1         0.5085   -4.9428   -0.4443 Cl        1 <0>        -0.0948
     20 C14         0.0279   -2.8143   -2.5178 C.3       1 <0>         0.1013
     21 H1         -0.0054   -3.9037   -2.5299 H         1 <0>         0.1274
     22 C15        -1.2317   -2.2788   -3.0597 C.1       1 <0>         0.2246
     23 N2         -2.2037   -1.8656   -3.4779 N.1       1 <0>        -0.4349
     24 C16         1.1811   -2.3374   -3.3626 C.ar      1 <0>        -0.0608
     25 C17         1.3232   -0.9909   -3.6411 C.ar      1 <0>        -0.0923
     26 C18         2.3806   -0.5529   -4.4159 C.ar      1 <0>        -0.1067
     27 C19         3.2971   -1.4625   -4.9127 C.ar      1 <0>        -0.0345
     28 C20         3.1544   -2.8101   -4.6336 C.ar      1 <0>        -0.1085
     29 C21         2.0997   -3.2462   -3.8540 C.ar      1 <0>        -0.0902
     30 Cl2         4.6253   -0.9133   -5.8864 Cl        1 <0>        -0.0774
     31 H2          1.2496    1.3708    0.6970 H         1 <0>         0.0531
     32 H3         -0.4182    1.4265    0.0778 H         1 <0>         0.0413
     33 H4         -0.1186    1.0825    1.7983 H         1 <0>         0.0758
     34 H5         -0.0250   -0.2714   -1.6141 H         1 <0>         0.1153
     35 H6          0.7776   -3.5195    2.0072 H         1 <0>         0.1137
     36 H7          3.2813   -0.9245    5.3102 H         1 <0>         0.1468
     37 H8          3.5160    0.3604    7.3973 H         1 <0>         0.1375
     38 H9         -0.6827    0.0234    8.0756 H         1 <0>         0.1375
     39 H10        -0.9174   -1.2534    5.9834 H         1 <0>         0.1466
     40 H11         0.6075   -0.2809   -3.2535 H         1 <0>         0.1331
     41 H12         2.4913    0.4991   -4.6337 H         1 <0>         0.1336
     42 H13         3.8693   -3.5206   -5.0214 H         1 <0>         0.1343
     43 H14         1.9909   -4.2975   -3.6321 H         1 <0>         0.1373
@<TRIPOS>BOND
     1    1    2 1
     2    1   31 1
     3    1   32 1
     4    1   33 1
     5    2    7 ar
     6    2    3 ar
     7    3    4 ar
     8    3   34 1
     9    4    5 ar
    10    4   20 1
    11    5    6 ar
    12    5   19 1
    13    6    7 ar
    14    6   35 1
    15    7    8 1
    16    8    9 1
    17    9   10 2
    18    9   11 2
    19    9   12 1
    20   12   17 ar
    21   12   13 ar
    22   13   14 ar
    23   13   36 1
    24   14   15 ar
    25   14   37 1
    26   15   16 ar
    27   15   18 1
    28   16   17 ar
    29   16   38 1
    30   17   39 1
    31   20   21 1
    32   20   22 1
    33   20   24 1
    34   22   23 3
    35   24   29 ar
    36   24   25 ar
    37   25   26 ar
    38   25   40 1
    39   26   27 ar
    40   26   41 1
    41   27   28 ar
    42   27   30 1
    43   28   29 ar
    44   28   42 1
    45   29   43 1
@<TRIPOS>MOLECULE
ZINC40475334
   43    47     0     0     0
SMALL
USER_CHARGES

@<TRIPOS>ATOM
      1 C1         -0.0035    1.5565    0.4018 C.3       1 <0>        -0.1129
      2 C2          0.0154    0.0515    0.3283 C.ar      1 <0>        -0.0982
      3 C3          0.0229   -0.5792   -0.9023 C.ar      1 <0>        -0.0998
      4 C4          0.0403   -1.9585   -0.9729 C.ar      1 <0>        -0.1371
      5 C5          0.0505   -2.7117    0.1932 C.ar      1 <0>         0.1185
      6 C6          0.0434   -2.0758    1.4272 C.ar      1 <0>        -0.1356
      7 C7          0.0309   -0.6961    1.4915 C.ar      1 <0>        -0.1003
      8 N1          0.0677   -4.1120    0.1248 N.am      1 <0>        -0.5277
      9 C8          0.0731   -4.9105    1.2240 C.2       1 <0>         0.5574
     10 O1         -0.1388   -4.5749    2.3694 O.2       1 <0>        -0.4434
     11 C9          0.3929   -6.2882    0.7351 C.3       1 <0>        -0.1177
     12 H1          1.4740   -6.4085    0.6651 H         1 <0>         0.1443
     13 C10        -0.2025   -7.4764    1.4503 C.3       1 <0>         0.0801
     14 H2          0.1880   -7.5264    2.4667 H         1 <0>         0.1100
     15 C11         0.1774   -8.7191    0.7015 C.2       1 <0>        -0.2912
     16 C12         0.5993   -8.8621   -0.5903 C.2       1 <0>         0.1124
     17 N2          0.8879  -10.1109   -0.9508 N.2       1 <0>        -0.5559
     18 C13         0.7521  -11.1227   -0.1203 C.2       1 <0>         0.2821
     19 S1          0.1929  -10.3919    1.2906 S.3       1 <0>         0.0624
     20 S2          1.0768  -12.8295   -0.4134 S.3       1 <0>        -0.7195
     21 S3          0.7209   -7.4475   -1.6749 S.3       1 <0>         0.0028
     22 C14        -0.2182   -6.2314   -0.6971 C.3       1 <0>        -0.1478
     23 H3         -1.2874   -6.4431   -0.6904 H         1 <0>         0.1605
     24 C15         0.0746   -4.7990   -1.0463 C.2       1 <0>         0.5665
     25 O2          0.2785   -4.3482   -2.1530 O.2       1 <0>        -0.4380
     26 C16        -1.7033   -7.3453    1.4893 C.ar      1 <0>        -0.0879
     27 C17        -2.4669   -7.8315    0.4445 C.ar      1 <0>        -0.1072
     28 C18        -3.8436   -7.7113    0.4802 C.ar      1 <0>        -0.1191
     29 C19        -4.4567   -7.1054    1.5609 C.ar      1 <0>        -0.1187
     30 C20        -3.6931   -6.6201    2.6061 C.ar      1 <0>        -0.1207
     31 C21        -2.3168   -6.7441    2.5724 C.ar      1 <0>        -0.1016
     32 H4          1.0195    1.9326    0.4143 H         1 <0>         0.0703
     33 H5         -0.5269    1.9562   -0.4667 H         1 <0>         0.0662
     34 H6         -0.5167    1.8695    1.3111 H         1 <0>         0.0661
     35 H7          0.0149    0.0074   -1.8091 H         1 <0>         0.1290
     36 H8          0.0454   -2.4505   -1.9343 H         1 <0>         0.1528
     37 H9          0.0510   -2.6592    2.3360 H         1 <0>         0.1537
     38 H10         0.0291   -0.2007    2.4511 H         1 <0>         0.1288
     39 H11        -1.9879   -8.3048   -0.3998 H         1 <0>         0.1244
     40 H12        -4.4401   -8.0904   -0.3363 H         1 <0>         0.1226
     41 H13        -5.5322   -7.0109    1.5885 H         1 <0>         0.1200
     42 H14        -4.1721   -6.1464    3.4503 H         1 <0>         0.1212
     43 H15        -1.7205   -6.3683    3.3907 H         1 <0>         0.1280
@<TRIPOS>BOND
     1    1    2 1
     2    1   32 1
     3    1   33 1
     4    1   34 1
     5    2    7 ar
     6    2    3 ar
     7    3    4 ar
     8    3   35 1
     9    4    5 ar
    10    4   36 1
    11    5    6 ar
    12    5    8 1
    13    6    7 ar
    14    6   37 1
    15    7   38 1
    16    8   24 am
    17    8    9 am
    18    9   10 2
    19    9   11 1
    20   11   12 1
    21   11   22 1
    22   11   13 1
    23   13   14 1
    24   13   15 1
    25   13   26 1
    26   15   19 1
    27   15   16 2
    28   16   17 1
    29   16   21 1
    30   17   18 2
    31   18   19 1
    32   18   20 1
    33   21   22 1
    34   22   23 1
    35   22   24 1
    36   24   25 2
    37   26   31 ar
    38   26   27 ar
    39   27   28 ar
    40   27   39 1
    41   28   29 ar
    42   28   40 1
    43   29   30 ar
    44   29   41 1
    45   30   31 ar
    46   30   42 1
    47   31   43 1
@<TRIPOS>MOLECULE
ZINC03051918
   57    61     0     0     0
SMALL
USER_CHARGES
N-(1,3-benzodioxol-5-ylmethyl)-3-[2-(1-cyclohexenyl)ethyl]-4-oxo-2-thioxo-1H-quinazoline-7-carboxamide
@<TRIPOS>ATOM
      1 C1          2.8857   -1.6459    1.6772 C.ar      1 <0>        -0.0879
      2 C2          1.6169   -1.5522    1.1354 C.ar      1 <0>        -0.1010
      3 C3          1.1833   -0.3558    0.5887 C.ar      1 <0>         0.0365
      4 C4          2.0285    0.7517    0.5865 C.ar      1 <0>         0.0300
      5 C5          3.2980    0.6505    1.1310 C.ar      1 <0>        -0.0811
      6 C6          3.7242   -0.5473    1.6749 C.ar      1 <0>        -0.0941
      7 C7          5.1058   -0.6547    2.2671 C.3       1 <0>         0.1671
      8 N1          6.0512   -1.0718    1.2286 N.am      1 <0>        -0.7368
      9 C8          7.3547   -1.2344    1.5299 C.2       1 <0>         0.5647
     10 O1          7.7459   -1.0351    2.6630 O.2       1 <0>        -0.5356
     11 C9          8.3102   -1.6560    0.4802 C.ar      1 <0>        -0.0888
     12 C10         7.8556   -1.8899   -0.8208 C.ar      1 <0>        -0.1589
     13 C11         8.7375   -2.2777   -1.8054 C.ar      1 <0>        -0.0309
     14 C12        10.0856   -2.4459   -1.4978 C.ar      1 <0>        -0.2178
     15 C13        10.5475   -2.2177   -0.1902 C.ar      1 <0>         0.1878
     16 C14         9.6566   -1.8230    0.7953 C.ar      1 <0>        -0.0740
     17 N2         11.8967   -2.3950    0.0820 N.2       1 <0>        -0.5671
     18 C15        12.7471   -2.7777   -0.8857 C.2       1 <0>         0.5072
     19 S1         14.4004   -2.9802   -0.4903 S.3       1 <0>        -0.7240
     20 N3         12.3559   -3.0084   -2.1487 N.am      1 <0>        -0.5272
     21 C16        11.0652   -2.8656   -2.5199 C.2       1 <0>         0.5476
     22 O2         10.7190   -3.0766   -3.6660 O.2       1 <0>        -0.5364
     23 C17        13.3479   -3.4235   -3.1436 C.3       1 <0>         0.1024
     24 C18        13.4452   -4.9503   -3.1606 C.3       1 <0>        -0.0920
     25 C19        14.4656   -5.3772   -4.1841 C.2       1 <0>        -0.1115
     26 C20        15.6743   -5.6016   -3.7789 C.2       1 <0>        -0.1530
     27 C21        16.7985   -6.0224   -4.6796 C.3       1 <0>        -0.0902
     28 C22        16.2432   -6.5494   -6.0046 C.3       1 <0>        -0.1213
     29 C23        15.2287   -5.5332   -6.5439 C.3       1 <0>        -0.1188
     30 C24        14.0158   -5.5217   -5.6084 C.3       1 <0>        -0.0820
     31 O3          1.3764    1.7968   -0.0014 O.3       1 <0>        -0.3096
     32 C25        -0.0175    1.4356    0.0099 C.3       1 <0>         0.2089
     33 O4          0.0021   -0.0041    0.0020 O.3       1 <0>        -0.3051
     34 H1          3.2223   -2.5798    2.1027 H         1 <0>         0.1425
     35 H2          0.9636   -2.4122    1.1388 H         1 <0>         0.1380
     36 H3          3.9552    1.5075    1.1309 H         1 <0>         0.1388
     37 H4          5.4098    0.3234    2.6683 H         1 <0>         0.0788
     38 H5          5.1004   -1.3980    3.0780 H         1 <0>         0.0814
     39 H6          5.6971   -1.2523    0.2029 H         1 <0>         0.4227
     40 H7          6.8091   -1.7627   -1.0558 H         1 <0>         0.1217
     41 H8          8.3845   -2.4539   -2.8108 H         1 <0>         0.1310
     42 H9         10.0046   -1.6456    1.8022 H         1 <0>         0.1422
     43 H10        13.0427   -3.0645   -4.1376 H         1 <0>         0.0789
     44 H11        14.3280   -2.9965   -2.8845 H         1 <0>         0.1190
     45 H12        13.7504   -5.3093   -2.1666 H         1 <0>         0.0819
     46 H13        12.4651   -5.3773   -3.4197 H         1 <0>         0.0596
     47 H14        15.9280   -5.4862   -2.7148 H         1 <0>         0.1134
     48 H15        17.4506   -5.1594   -4.8797 H         1 <0>         0.0708
     49 H16        17.3816   -6.8172   -4.1914 H         1 <0>         0.0671
     50 H17        17.0667   -6.6759   -6.7228 H         1 <0>         0.0591
     51 H18        15.7512   -7.5188   -5.8364 H         1 <0>         0.0612
     52 H19        15.6905   -4.5353   -6.5751 H         1 <0>         0.0641
     53 H20        14.9200   -5.8262   -7.5582 H         1 <0>         0.0606
     54 H21        13.4614   -6.4647   -5.7239 H         1 <0>         0.0692
     55 H22        13.3626   -4.6775   -5.8741 H         1 <0>         0.0722
     56 H23        -0.4939    1.8408    0.9148 H         1 <0>         0.0855
     57 H24        -0.5110    1.8504   -0.8814 H         1 <0>         0.1336
@<TRIPOS>BOND
     1    1    6 ar
     2    1    2 ar
     3    1   34 1
     4    2    3 ar
     5    2   35 1
     6    3   33 1
     7    3    4 ar
     8    4    5 ar
     9    4   31 1
    10    5    6 ar
    11    5   36 1
    12    6    7 1
    13    7    8 1
    14    7   37 1
    15    7   38 1
    16    8    9 am
    17    8   39 1
    18    9   10 2
    19    9   11 1
    20   11   16 ar
    21   11   12 ar
    22   12   13 ar
    23   12   40 1
    24   13   14 ar
    25   13   41 1
    26   14   21 1
    27   14   15 ar
    28   15   16 ar
    29   15   17 1
    30   16   42 1
    31   17   18 2
    32   18   19 1
    33   18   20 1
    34   20   21 am
    35   20   23 1
    36   21   22 2
    37   23   24 1
    38   23   43 1
    39   23   44 1
    40   24   25 1
    41   24   45 1
    42   24   46 1
    43   25   30 1
    44   25   26 2
    45   26   27 1
    46   26   47 1
    47   27   28 1
    48   27   48 1
    49   27   49 1
    50   28   29 1
    51   28   50 1
    52   28   51 1
    53   29   30 1
    54   29   52 1
    55   29   53 1
    56   30   54 1
    57   30   55 1
    58   31   32 1
    59   32   33 1
    60   32   56 1
    61   32   57 1
@<TRIPOS>MOLECULE
ZINC03846581
   60    65     0     0     0
SMALL
USER_CHARGES
3-[(3S)-3-(1,3-benzodioxol-5-yl)-3-(1-naphthylamino)propanoyl]-2-hydroxy-1-methyl-quinolin-4-one
@<TRIPOS>ATOM
      1 C1         -5.5691    2.1326    6.4251 C.3       1 <0>         0.0719
      2 N1         -5.9313    1.9120    5.0228 N.pl3     1 <0>        -0.5248
      3 C2         -7.1166    2.4431    4.5547 C.ar      1 <0>         0.2191
      4 C3         -7.9448    3.1713    5.4046 C.ar      1 <0>        -0.1975
      5 C4         -9.1271    3.6969    4.9310 C.ar      1 <0>        -0.0675
      6 C5         -9.5056    3.5107    3.6094 C.ar      1 <0>        -0.1833
      7 C6         -8.7010    2.7939    2.7513 C.ar      1 <0>        -0.0324
      8 C7         -7.5017    2.2555    3.2177 C.ar      1 <0>        -0.1964
      9 C8         -6.6149    1.4878    2.3221 C.2       1 <0>         0.4324
     10 O1         -6.9019    1.3025    1.1524 O.2       1 <0>        -0.5360
     11 C9         -5.3741    0.9509    2.8992 C.2       1 <0>        -0.5170
     12 C10        -5.0955    1.2015    4.2459 C.2       1 <0>         0.5183
     13 O2         -3.9584    0.7172    4.7800 O.3       1 <0>        -0.6249
     14 C11        -4.4762    0.1999    2.1052 C.2       1 <0>         0.4152
     15 O3         -3.4520   -0.2340    2.5923 O.2       1 <0>        -0.4849
     16 C12        -4.7906   -0.0618    0.6548 C.3       1 <0>        -0.1445
     17 C13        -3.6659   -0.8901    0.0305 C.3       1 <0>         0.2034
     18 H1         -3.4770   -1.8031    0.6142 H         1 <0>         0.0946
     19 C14        -4.0368   -1.2560   -1.3836 C.ar      1 <0>        -0.0723
     20 C15        -3.8805   -0.3309   -2.3990 C.ar      1 <0>        -0.0869
     21 C16        -4.2151   -0.6633   -3.6984 C.ar      1 <0>        -0.0978
     22 C17        -4.7178   -1.9222   -3.9846 C.ar      1 <0>         0.0215
     23 C18        -4.8802   -2.8523   -2.9608 C.ar      1 <0>         0.0321
     24 C19        -4.5381   -2.5139   -1.6616 C.ar      1 <0>        -0.0910
     25 O4         -5.3862   -4.0029   -3.4930 O.3       1 <0>        -0.3122
     26 C20        -5.1485   -3.9082   -4.9100 C.3       1 <0>         0.2099
     27 O5         -5.1220   -2.4901   -5.1582 O.3       1 <0>        -0.3083
     28 N2         -2.4282   -0.1063    0.0235 N.pl3     1 <0>        -0.7175
     29 C21        -1.1943   -0.7529    0.0089 C.ar      1 <0>         0.2672
     30 C22        -1.1306   -2.1303    0.0005 C.ar      1 <0>        -0.2308
     31 C23         0.0967   -2.7856   -0.0141 C.ar      1 <0>        -0.0484
     32 C24         1.2662   -2.0881   -0.0210 C.ar      1 <0>        -0.1967
     33 C25         1.2454   -0.6831   -0.0134 C.ar      1 <0>        -0.0042
     34 C26         0.0021   -0.0041    0.0020 C.ar      1 <0>        -0.0999
     35 C27        -0.0170    1.3993    0.0097 C.ar      1 <0>        -0.0796
     36 C28         1.1568    2.0894    0.0022 C.ar      1 <0>        -0.1450
     37 C29         2.3803    1.4226   -0.0121 C.ar      1 <0>        -0.1078
     38 C30         2.4369    0.0628   -0.0204 C.ar      1 <0>        -0.1248
     39 H2         -6.3530    2.7271    6.9171 H         1 <0>         0.0779
     40 H3         -4.6125    2.6733    6.4760 H         1 <0>         0.0679
     41 H4         -5.4698    1.1630    6.9350 H         1 <0>         0.0680
     42 H5         -7.6610    3.3231    6.4355 H         1 <0>         0.1296
     43 H6         -9.7657    4.2600    5.5955 H         1 <0>         0.1206
     44 H7        -10.4348    3.9291    3.2520 H         1 <0>         0.1196
     45 H8         -8.9974    2.6492    1.7229 H         1 <0>         0.1309
     46 H9         -5.7386   -0.6147    0.5791 H         1 <0>         0.1003
     47 H10        -4.8808    0.8955    0.1206 H         1 <0>         0.0927
     48 H11        -3.4927    0.6524   -2.1771 H         1 <0>         0.1343
     49 H12        -4.0880    0.0600   -4.4904 H         1 <0>         0.1319
     50 H13        -4.6627   -3.2333   -0.8658 H         1 <0>         0.1344
     51 H14        -4.1913   -4.3919   -5.1543 H         1 <0>         0.0811
     52 H15        -5.9625   -4.4111   -5.4528 H         1 <0>         0.1290
     53 H16        -2.4732    0.9928    0.0298 H         1 <0>         0.4141
     54 H17        -2.0438   -2.7070    0.0057 H         1 <0>         0.1173
     55 H18         0.1222   -3.8653   -0.0204 H         1 <0>         0.1128
     56 H19         2.2092   -2.6144   -0.0320 H         1 <0>         0.1143
     57 H20        -0.9580    1.9293    0.0171 H         1 <0>         0.1178
     58 H21         1.1393    3.1693    0.0082 H         1 <0>         0.1166
     59 H22         3.2972    1.9933   -0.0179 H         1 <0>         0.1154
     60 H23         3.3924   -0.4406   -0.0318 H         1 <0>         0.1205
@<TRIPOS>BOND
     1    1    2 1
     2    1   39 1
     3    1   40 1
     4    1   41 1
     5    2   12 1
     6    2    3 1
     7    3    8 ar
     8    3    4 ar
     9    4    5 ar
    10    4   42 1
    11    5    6 ar
    12    5   43 1
    13    6    7 ar
    14    6   44 1
    15    7    8 ar
    16    7   45 1
    17    8    9 1
    18    9   10 2
    19    9   11 1
    20   11   12 2
    21   11   14 1
    22   12   13 1
    23   14   15 2
    24   14   16 1
    25   16   17 1
    26   16   46 1
    27   16   47 1
    28   17   18 1
    29   17   19 1
    30   17   28 1
    31   19   24 ar
    32   19   20 ar
    33   20   21 ar
    34   20   48 1
    35   21   22 ar
    36   21   49 1
    37   22   27 1
    38   22   23 ar
    39   23   24 ar
    40   23   25 1
    41   24   50 1
    42   25   26 1
    43   26   27 1
    44   26   51 1
    45   26   52 1
    46   28   29 1
    47   28   53 1
    48   29   34 ar
    49   29   30 ar
    50   30   31 ar
    51   30   54 1
    52   31   32 ar
    53   31   55 1
    54   32   33 ar
    55   32   56 1
    56   33   38 ar
    57   33   34 ar
    58   34   35 ar
    59   35   36 ar
    60   35   57 1
    61   36   37 ar
    62   36   58 1
    63   37   38 ar
    64   37   59 1
    65   38   60 1
@<TRIPOS>MOLECULE
ZINC13345939
   55    59     0     0     0
SMALL
USER_CHARGES

@<TRIPOS>ATOM
      1 C1         -0.0187    1.5258    0.0104 C.3       1 <0>        -0.1465
      2 C2          0.0021   -0.0041    0.0020 C.3       1 <0>        -0.0873
      3 H1         -1.0196   -0.3837    0.0097 H         1 <0>         0.0763
      4 C3          0.7256   -0.5013   -1.2529 C.3       1 <0>        -0.1162
      5 C4          0.5364   -2.0115   -1.3965 C.3       1 <0>        -0.0591
      6 C5          0.9496   -2.6879   -0.0920 C.2       1 <0>        -0.0399
      7 C6          1.0317   -1.9762    1.0551 C.2       1 <0>        -0.1831
      8 S1          1.5375   -3.1441    2.2925 S.3       1 <0>         0.1356
      9 C7          1.6386   -4.5809    1.2725 C.2       1 <0>         0.1159
     10 C8          1.2728   -4.1026   -0.0065 C.2       1 <0>        -0.2685
     11 C9          1.2567   -5.0511   -1.0806 C.2       1 <0>         0.5680
     12 O1          0.9550   -4.7348   -2.2186 O.2       1 <0>        -0.5105
     13 N1          1.5976   -6.3198   -0.7538 N.am      1 <0>        -0.5039
     14 C10         1.9375   -6.6938    0.5107 C.2       1 <0>         0.3496
     15 N2          1.9634   -5.8422    1.5272 N.2       1 <0>        -0.4922
     16 S2          2.3608   -8.3780    0.8086 S.3       1 <0>         0.1349
     17 C11         2.7358   -8.4291    2.5827 C.3       1 <0>        -0.0868
     18 C12         3.1182   -9.8330    2.9751 C.2       1 <0>         0.3807
     19 N3          3.4313  -10.0762    4.2745 N.am      1 <0>        -0.6483
     20 H2          3.4038   -9.3519    4.9191 H         1 <0>         0.4152
     21 C13         3.7808  -11.3198    4.6779 C.2       1 <0>         0.5574
     22 O2          4.0632  -11.5518    5.8387 O.2       1 <0>        -0.5164
     23 C14         3.8055  -12.3820    3.6573 C.ar      1 <0>        -0.1953
     24 C15         4.1516  -13.6947    3.9722 C.ar      1 <0>        -0.0652
     25 C16         4.1613  -14.6487    2.9948 C.ar      1 <0>        -0.0881
     26 C17         3.8257  -14.3199    1.6749 C.ar      1 <0>        -0.0886
     27 C18         3.4779  -13.0159    1.3401 C.ar      1 <0>        -0.0640
     28 C19         3.4645  -12.0333    2.3321 C.ar      1 <0>         0.1256
     29 N4          3.1265  -10.7489    2.0551 N.2       1 <0>        -0.4913
     30 C20         3.8419  -15.3663    0.6310 C.2       1 <0>         0.5190
     31 O3          4.1475  -16.5141    0.9207 O.co2     1 <0>        -0.6766
     32 O4          3.5498  -15.0840   -0.5221 O.co2     1 <0>        -0.6752
     33 C21         1.6007   -7.3367   -1.8084 C.3       1 <0>         0.1094
     34 C22         2.9634   -7.3915   -2.4495 C.2       1 <0>        -0.1938
     35 C23         3.6144   -8.5268   -2.5085 C.2       1 <0>        -0.1398
     36 C24         0.7512   -0.5159    1.2405 C.3       1 <0>        -0.0285
     37 H3          1.0039    1.9031    0.0027 H         1 <0>         0.0566
     38 H4         -0.5459    1.8868   -0.8726 H         1 <0>         0.0583
     39 H5         -0.5289    1.8773    0.9072 H         1 <0>         0.0567
     40 H6          0.3160    0.0001   -2.1298 H         1 <0>         0.0704
     41 H7          1.7888   -0.2755   -1.1715 H         1 <0>         0.0653
     42 H8         -0.5108   -2.2300   -1.6052 H         1 <0>         0.0780
     43 H9          1.1578   -2.3812   -2.2122 H         1 <0>         0.0863
     44 H10         3.5632   -7.7533    2.7988 H         1 <0>         0.1324
     45 H11         1.8570   -8.1202    3.1488 H         1 <0>         0.1319
     46 H12         4.4121  -13.9570    4.9869 H         1 <0>         0.1333
     47 H13         4.4303  -15.6652    3.2415 H         1 <0>         0.1405
     48 H14         3.2203  -12.7652    0.3216 H         1 <0>         0.1473
     49 H15         1.3630   -8.3089   -1.3764 H         1 <0>         0.1067
     50 H16         0.8549   -7.0816   -2.5612 H         1 <0>         0.1166
     51 H17         3.4033   -6.4948   -2.8603 H         1 <0>         0.1143
     52 H18         4.5910   -8.5660   -2.9679 H         1 <0>         0.1084
     53 H19         3.1744   -9.4235   -2.0976 H         1 <0>         0.1107
     54 H20         1.6914    0.0247    1.3492 H         1 <0>         0.0829
     55 H21         0.1356   -0.3681    2.1279 H         1 <0>         0.0812
@<TRIPOS>BOND
     1    1    2 1
     2    1   37 1
     3    1   38 1
     4    1   39 1
     5    2    3 1
     6    2   36 1
     7    2    4 1
     8    4    5 1
     9    4   40 1
    10    4   41 1
    11    5    6 1
    12    5   42 1
    13    5   43 1
    14    6   10 1
    15    6    7 2
    16    7    8 1
    17    7   36 1
    18    8    9 1
    19    9   15 1
    20    9   10 2
    21   10   11 1
    22   11   12 2
    23   11   13 am
    24   13   14 1
    25   13   33 1
    26   14   15 2
    27   14   16 1
    28   16   17 1
    29   17   18 1
    30   17   44 1
    31   17   45 1
    32   18   29 2
    33   18   19 1
    34   19   20 1
    35   19   21 am
    36   21   22 2
    37   21   23 1
    38   23   28 ar
    39   23   24 ar
    40   24   25 ar
    41   24   46 1
    42   25   26 ar
    43   25   47 1
    44   26   27 ar
    45   26   30 1
    46   27   28 ar
    47   27   48 1
    48   28   29 1
    49   30   31 2
    50   30   32 1
    51   33   34 1
    52   33   49 1
    53   33   50 1
    54   34   35 2
    55   34   51 1
    56   35   52 1
    57   35   53 1
    58   36   54 1
    59   36   55 1
@<TRIPOS>MOLECULE
ZINC61881583
   31    32     0     0     0
SMALL
USER_CHARGES

@<TRIPOS>ATOM
      1 C1         -0.0184    1.5028    0.0103 C.3       1 <0>        -0.0776
      2 C2          0.0021   -0.0041    0.0020 C.ar      1 <0>        -0.1466
      3 C3          0.0057   -0.6888   -1.1976 C.ar      1 <0>        -0.0500
      4 C4          0.0240   -2.0720   -1.2060 C.ar      1 <0>        -0.1859
      5 C5          0.0391   -2.7738   -0.0134 C.ar      1 <0>        -0.0374
      6 C6          0.0355   -2.0947    1.1889 C.ar      1 <0>        -0.2594
      7 C7          0.0230   -0.7055    1.2005 C.ar      1 <0>         0.3002
      8 N1          0.0256   -0.0156    2.4154 N.2       1 <0>        -1.0626
      9 S1          0.0505   -0.8536    3.8435 S.o2      1 <0>         2.5928
     10 O1         -1.1849   -1.5507    3.9270 O.2       1 <0>        -1.0225
     11 O2          1.3054   -1.5177    3.9029 O.2       1 <0>        -1.0025
     12 C8          0.0474    0.3344    5.1448 C.ar      1 <0>        -0.5355
     13 C9         -1.0287    0.4079    6.0103 C.ar      1 <0>        -0.0763
     14 C10        -1.0349    1.3391    7.0338 C.ar      1 <0>         0.0038
     15 C11         0.0356    2.1992    7.1941 C.ar      1 <0>        -0.1513
     16 C12         1.1174    2.1277    6.3268 C.ar      1 <0>         0.2316
     17 C13         1.1226    1.1874    5.3029 C.ar      1 <0>        -0.0731
     18 Br1         2.5969    1.0806    4.1235 Br        1 <0>        -0.0050
     19 N2          2.2007    2.9957    6.4857 N.pl3     1 <0>        -0.8678
     20 Cl1        -2.3884    1.4278    8.1172 Cl        1 <0>        -0.0641
     21 Br2         0.0277   -3.0058   -2.8504 Br        1 <0>        -0.1025
     22 H1          1.0042    1.8801    0.0026 H         1 <0>         0.0490
     23 H2         -0.5455    1.8639   -0.8728 H         1 <0>         0.0387
     24 H3         -0.5286    1.8543    0.9071 H         1 <0>         0.0748
     25 H4         -0.0060   -0.1438   -2.1299 H         1 <0>         0.1134
     26 H5          0.0533   -3.8536   -0.0230 H         1 <0>         0.1106
     27 H6          0.0470   -2.6429    2.1194 H         1 <0>         0.1041
     28 H7         -1.8663   -0.2627    5.8868 H         1 <0>         0.1536
     29 H8          0.0302    2.9261    7.9928 H         1 <0>         0.1414
     30 H9          2.1975    3.6492    7.2026 H         1 <0>         0.4015
     31 H10         2.9560    2.9449    5.8791 H         1 <0>         0.4048
@<TRIPOS>BOND
     1    1    2 1
     2    1   22 1
     3    1   23 1
     4    1   24 1
     5    2    7 ar
     6    2    3 ar
     7    3    4 ar
     8    3   25 1
     9    4    5 ar
    10    4   21 1
    11    5    6 ar
    12    5   26 1
    13    6    7 ar
    14    6   27 1
    15    7    8 1
    16    8    9 1
    17    9   10 2
    18    9   11 2
    19    9   12 1
    20   12   17 ar
    21   12   13 ar
    22   13   14 ar
    23   13   28 1
    24   14   15 ar
    25   14   20 1
    26   15   16 ar
    27   15   29 1
    28   16   17 ar
    29   16   19 1
    30   17   18 1
    31   19   30 1
    32   19   31 1
@<TRIPOS>MOLECULE
ZINC17159874
   59    63     0     0     0
SMALL
USER_CHARGES

@<TRIPOS>ATOM
      1 C1          0.8846    0.6199   -2.0120 C.3       1 <0>        -0.1527
      2 C2          0.6420   -0.7639   -1.4059 C.3       1 <0>         0.0527
      3 O1         -0.5188   -1.3476   -2.0008 O.3       1 <0>        -0.3119
      4 C3         -0.8753   -2.5844   -1.5714 C.ar      1 <0>         0.1468
      5 C4         -0.1228   -3.2209   -0.5901 C.ar      1 <0>        -0.2145
      6 C5         -0.4800   -4.4751   -0.1510 C.ar      1 <0>        -0.0434
      7 C6         -1.6035   -5.1107   -0.6941 C.ar      1 <0>        -0.0916
      8 C7         -2.3578   -4.4654   -1.6820 C.ar      1 <0>        -0.0409
      9 C8         -1.9953   -3.2089   -2.1099 C.ar      1 <0>        -0.1457
     10 C9         -1.9895   -6.4510   -0.2291 C.2       1 <0>         0.1371
     11 C10        -3.3019   -6.6879    0.1322 C.2       1 <0>        -0.1624
     12 C11        -3.7390   -8.0431    0.6134 C.3       1 <0>         0.0553
     13 H1         -4.6965   -8.2963    0.1582 H         1 <0>         0.1099
     14 C12        -2.7180   -9.0841    0.2385 C.ar      1 <0>        -0.1039
     15 C13        -3.0729  -10.4213    0.2650 C.ar      1 <0>        -0.0781
     16 C14        -2.1513  -11.3926   -0.0755 C.ar      1 <0>        -0.1407
     17 C15        -0.8685  -11.0305   -0.4442 C.ar      1 <0>        -0.0956
     18 C16        -0.5086   -9.6986   -0.4724 C.ar      1 <0>        -0.1347
     19 C17        -1.4338   -8.7181   -0.1303 C.ar      1 <0>         0.1175
     20 O2         -1.0600   -7.4176   -0.1706 O.3       1 <0>        -0.2323
     21 C18        -3.8910   -8.0152    2.1125 C.ar      1 <0>        -0.0735
     22 C19        -2.8307   -7.6216    2.9076 C.ar      1 <0>        -0.0989
     23 C20        -2.9701   -7.5959    4.2825 C.ar      1 <0>        -0.1256
     24 C21        -4.1700   -7.9635    4.8626 C.ar      1 <0>        -0.1185
     25 C22        -5.2303   -8.3562    4.0676 C.ar      1 <0>        -0.1185
     26 C23        -5.0922   -8.3777    2.6922 C.ar      1 <0>        -0.0717
     27 C24        -6.2499   -8.8007    1.8251 C.3       1 <0>        -0.1216
     28 C25        -4.2288   -5.6608    0.0501 C.2       1 <0>         0.0853
     29 C26        -5.2773   -5.7351   -0.8782 C.2       1 <0>        -0.2468
     30 C27        -5.3377   -6.8138   -1.8743 C.2       1 <0>         0.5544
     31 N1         -6.3774   -6.8220   -2.7367 N.am      1 <0>        -0.6968
     32 C28        -7.3202   -5.8673   -2.6752 C.2       1 <0>         0.6663
     33 N2         -7.2891   -4.8805   -1.7839 N.2       1 <0>        -0.6698
     34 C29        -6.3225   -4.7743   -0.8863 C.2       1 <0>         0.4925
     35 O3         -6.3272   -3.7613    0.0070 O.3       1 <0>        -0.6379
     36 O4         -8.2431   -5.9066   -3.4702 O.2       1 <0>        -0.5801
     37 O5         -4.4767   -7.6736   -1.9212 O.2       1 <0>        -0.5189
     38 H2          1.7700    1.0651   -1.5582 H         1 <0>         0.0772
     39 H3          1.0365    0.5241   -3.0871 H         1 <0>         0.0660
     40 H4          0.0202    1.2562   -1.8225 H         1 <0>         0.0676
     41 H5          1.5064   -1.4002   -1.5955 H         1 <0>         0.0620
     42 H6          0.4901   -0.6681   -0.3308 H         1 <0>         0.0635
     43 H7          0.7437   -2.7300   -0.1722 H         1 <0>         0.1314
     44 H8          0.1053   -4.9686    0.6108 H         1 <0>         0.1310
     45 H9         -3.2252   -4.9513   -2.1040 H         1 <0>         0.1332
     46 H10        -2.5788   -2.7085   -2.8686 H         1 <0>         0.1381
     47 H11        -4.0738  -10.7067    0.5533 H         1 <0>         0.1233
     48 H12        -2.4326  -12.4351   -0.0535 H         1 <0>         0.1241
     49 H13        -0.1482  -11.7902   -0.7097 H         1 <0>         0.1287
     50 H14         0.4935   -9.4170   -0.7603 H         1 <0>         0.1307
     51 H15        -1.8933   -7.3344    2.4545 H         1 <0>         0.1159
     52 H16        -2.1416   -7.2891    4.9036 H         1 <0>         0.1186
     53 H17        -4.2788   -7.9442    5.9369 H         1 <0>         0.1191
     54 H18        -6.1675   -8.6436    4.5208 H         1 <0>         0.1212
     55 H19        -6.1499   -9.8570    1.5754 H         1 <0>         0.0698
     56 H20        -7.1842   -8.6416    2.3635 H         1 <0>         0.0696
     57 H21        -6.2531   -8.2096    0.9093 H         1 <0>         0.0691
     58 H22        -4.1436   -4.8032    0.7010 H         1 <0>         0.1502
     59 H23        -6.4434   -7.5219   -3.4050 H         1 <0>         0.3989
@<TRIPOS>BOND
     1    1    2 1
     2    1   38 1
     3    1   39 1
     4    1   40 1
     5    2    3 1
     6    2   41 1
     7    2   42 1
     8    3    4 1
     9    4    9 ar
    10    4    5 ar
    11    5    6 ar
    12    5   43 1
    13    6    7 ar
    14    6   44 1
    15    7    8 ar
    16    7   10 1
    17    8    9 ar
    18    8   45 1
    19    9   46 1
    20   10   20 1
    21   10   11 2
    22   11   12 1
    23   11   28 1
    24   12   13 1
    25   12   14 1
    26   12   21 1
    27   14   19 ar
    28   14   15 ar
    29   15   16 ar
    30   15   47 1
    31   16   17 ar
    32   16   48 1
    33   17   18 ar
    34   17   49 1
    35   18   19 ar
    36   18   50 1
    37   19   20 1
    38   21   26 ar
    39   21   22 ar
    40   22   23 ar
    41   22   51 1
    42   23   24 ar
    43   23   52 1
    44   24   25 ar
    45   24   53 1
    46   25   26 ar
    47   25   54 1
    48   26   27 1
    49   27   55 1
    50   27   56 1
    51   27   57 1
    52   28   29 2
    53   28   58 1
    54   29   34 1
    55   29   30 1
    56   30   31 am
    57   30   37 2
    58   31   32 am
    59   31   59 1
    60   32   33 1
    61   32   36 2
    62   33   34 2
    63   34   35 1
@<TRIPOS>MOLECULE
ZINC13060289
   56    58     0     0     0
SMALL
USER_CHARGES
4-[(4S)-4-(4-tert-butylphenyl)-5-methoxycarbonyl-6-methyl-2-oxo-3,4-dihydropyrimidin-1-yl]benzoic acid
@<TRIPOS>ATOM
      1 C1          1.2529    3.2615    1.4597 C.3       1 <0>        -0.1295
      2 C2          1.1981    1.9605    0.7010 C.2       1 <0>         0.2757
      3 C3          0.0374    1.2732    0.6437 C.2       1 <0>        -0.2979
      4 C4          0.0265   -0.0295   -0.1299 C.3       1 <0>         0.2413
      5 H1         -0.7278    0.0510   -0.9127 H         1 <0>         0.0874
      6 N1          1.2916   -0.4423   -0.7604 N.am      1 <0>        -0.7138
      7 C5          2.3705    0.3519   -0.6145 C.2       1 <0>         0.7019
      8 O1          3.4193    0.0197   -1.1313 O.2       1 <0>        -0.5405
      9 N2          2.3248    1.4953    0.0808 N.am      1 <0>        -0.4862
     10 C6          3.4922    2.2549    0.1780 C.ar      1 <0>         0.1000
     11 C7          4.4337    1.9578    1.1582 C.ar      1 <0>        -0.1106
     12 C8          5.5882    2.7015    1.2540 C.ar      1 <0>        -0.0684
     13 C9          5.8092    3.7628    0.3714 C.ar      1 <0>        -0.0918
     14 C10         4.8584    4.0617   -0.6089 C.ar      1 <0>        -0.0778
     15 C11         3.7085    3.3106   -0.7018 C.ar      1 <0>        -0.1146
     16 C12         7.0427    4.5649    0.4738 C.2       1 <0>         0.4871
     17 O2          7.2334    5.4868   -0.2943 O.co2     1 <0>        -0.6263
     18 C13        -0.4024   -1.1253    0.8116 C.ar      1 <0>        -0.1074
     19 C14         0.5106   -1.6785    1.6899 C.ar      1 <0>        -0.0931
     20 C15         0.1158   -2.6799    2.5572 C.ar      1 <0>        -0.1245
     21 C16        -1.1891   -3.1357    2.5387 C.ar      1 <0>        -0.0661
     22 C17        -2.1006   -2.5864    1.6564 C.ar      1 <0>        -0.1206
     23 C18        -1.7073   -1.5811    0.7931 C.ar      1 <0>        -0.0782
     24 C19        -1.6181   -4.2311    3.4806 C.3       1 <0>        -0.0302
     25 C20        -2.1201   -5.4301    2.6736 C.3       1 <0>        -0.1375
     26 C21        -0.4278   -4.6583    4.3418 C.3       1 <0>        -0.1452
     27 C22        -2.7418   -3.7169    4.3826 C.3       1 <0>        -0.1376
     28 C23        -1.1308    1.7561    1.2797 C.2       1 <0>         0.5370
     29 O3         -1.0981    2.8036    1.8980 O.2       1 <0>        -0.5183
     30 O4         -2.2810    1.0550    1.2005 O.3       1 <0>        -0.3467
     31 C24        -3.4212    1.6016    1.8663 C.3       1 <0>         0.0378
     32 H2          1.0092    3.0819    2.5069 H         1 <0>         0.1034
     33 H3          2.2556    3.6825    1.3871 H         1 <0>         0.0816
     34 H4          0.5334    3.9609    1.0340 H         1 <0>         0.1048
     35 H5          1.3469   -1.2663   -1.2691 H         1 <0>         0.4310
     36 H6          4.2606    1.1401    1.8422 H         1 <0>         0.1197
     37 H7          6.3208    2.4675    2.0124 H         1 <0>         0.1405
     38 H8          5.0260    4.8807   -1.2927 H         1 <0>         0.1371
     39 H9          2.9735    3.5410   -1.4588 H         1 <0>         0.1211
     40 H10         1.5312   -1.3255    1.7013 H         1 <0>         0.1124
     41 H11         0.8279   -3.1088    3.2467 H         1 <0>         0.1236
     42 H12        -3.1201   -2.9425    1.6419 H         1 <0>         0.1186
     43 H13        -2.4195   -1.1519    0.1038 H         1 <0>         0.1252
     44 H14        -1.3195   -5.7964    2.0309 H         1 <0>         0.0560
     45 H15        -2.4303   -6.2224    3.3548 H         1 <0>         0.0567
     46 H16        -2.9680   -5.1257    2.0600 H         1 <0>         0.0567
     47 H17        -0.0702   -3.8041    4.9168 H         1 <0>         0.0588
     48 H18        -0.7381   -5.4506    5.0231 H         1 <0>         0.0568
     49 H19         0.3728   -5.0246    3.6992 H         1 <0>         0.0587
     50 H20        -3.5898   -3.4126    3.7690 H         1 <0>         0.0567
     51 H21        -3.0521   -4.5092    5.0639 H         1 <0>         0.0567
     52 H22        -2.3842   -2.8627    4.9575 H         1 <0>         0.0561
     53 H23        -4.2764    0.9410    1.7239 H         1 <0>         0.0966
     54 H24        -3.2090    1.6969    2.9312 H         1 <0>         0.0571
     55 H25        -3.6478    2.5839    1.4517 H         1 <0>         0.0575
     56 O5          7.9580    4.2753    1.4193 O.co2     1 <0>        -0.7487
@<TRIPOS>BOND
     1    1    2 1
     2    1   32 1
     3    1   33 1
     4    1   34 1
     5    2    9 1
     6    2    3 2
     7    3    4 1
     8    3   28 1
     9    4    5 1
    10    4    6 1
    11    4   18 1
    12    6    7 am
    13    6   35 1
    14    7    8 2
    15    7    9 am
    16    9   10 1
    17   10   15 ar
    18   10   11 ar
    19   11   12 ar
    20   11   36 1
    21   12   13 ar
    22   12   37 1
    23   13   14 ar
    24   13   16 1
    25   14   15 ar
    26   14   38 1
    27   15   39 1
    28   16   17 2
    29   16   56 1
    30   18   23 ar
    31   18   19 ar
    32   19   20 ar
    33   19   40 1
    34   20   21 ar
    35   20   41 1
    36   21   22 ar
    37   21   24 1
    38   22   23 ar
    39   22   42 1
    40   23   43 1
    41   24   25 1
    42   24   26 1
    43   24   27 1
    44   25   44 1
    45   25   45 1
    46   25   46 1
    47   26   47 1
    48   26   48 1
    49   26   49 1
    50   27   50 1
    51   27   51 1
    52   27   52 1
    53   28   29 2
    54   28   30 1
    55   30   31 1
    56   31   53 1
    57   31   54 1
    58   31   55 1
@<TRIPOS>MOLECULE
ZINC33808995
   56    60     0     0     0
SMALL
USER_CHARGES
2-[(E)-[(5S)-7-methyl-6-(o-tolylcarbamoyl)-3-oxo-5-(2-thienyl)-5H-thiazolo[3,2-a]pyrimidin-2-ylidene]methyl]benzoic acid
@<TRIPOS>ATOM
      1 C1         -1.7685    1.6190   -0.9325 C.3       1 <0>        -0.1156
      2 C2         -0.9242    1.1398    0.2201 C.ar      1 <0>        -0.1189
      3 C3         -0.8842   -0.2043    0.5360 C.ar      1 <0>        -0.1020
      4 C4         -0.1098   -0.6448    1.5934 C.ar      1 <0>        -0.1394
      5 C5          0.6275    0.2581    2.3378 C.ar      1 <0>        -0.1059
      6 C6          0.5923    1.6030    2.0270 C.ar      1 <0>        -0.1313
      7 C7         -0.1847    2.0489    0.9653 C.ar      1 <0>         0.1559
      8 N1         -0.2229    3.4102    0.6482 N.am      1 <0>        -0.6714
      9 C8         -0.0011    4.3318    1.6063 C.2       1 <0>         0.6038
     10 O1          0.3200    3.9796    2.7280 O.2       1 <0>        -0.5145
     11 C9         -0.1402    5.7010    1.3115 C.2       1 <0>        -0.3009
     12 C10        -1.3730    6.2835    1.2464 C.2       1 <0>         0.2059
     13 N2         -1.4955    7.5774    0.9725 N.2       1 <0>        -0.5247
     14 C11        -0.4966    8.3886    0.7375 C.2       1 <0>         0.4036
     15 N3          0.8253    8.0052    0.7477 N.am      1 <0>        -0.5838
     16 C12         1.7638    8.9257    0.4908 C.2       1 <0>         0.5508
     17 O2          2.9449    8.6342    0.4890 O.2       1 <0>        -0.4520
     18 C13         1.3202   10.3032    0.2118 C.2       1 <0>        -0.2778
     19 C14         2.0583   11.4062   -0.0736 C.2       1 <0>         0.1645
     20 C15         3.5136   11.2956   -0.2283 C.ar      1 <0>        -0.0804
     21 C16         4.0620   10.2943   -1.0349 C.ar      1 <0>        -0.0614
     22 C17         5.4302   10.1998   -1.1809 C.ar      1 <0>        -0.1298
     23 C18         6.2704   11.0841   -0.5231 C.ar      1 <0>        -0.1132
     24 C19         5.7507   12.0770    0.2829 C.ar      1 <0>        -0.0891
     25 C20         4.3707   12.1962    0.4409 C.ar      1 <0>        -0.0772
     26 C21         3.8102   13.2555    1.3005 C.2       1 <0>         0.4873
     27 O3          2.6164   13.2880    1.5243 O.co2     1 <0>        -0.6229
     28 O4          4.6220   14.1873    1.8376 O.co2     1 <0>        -0.7401
     29 S1         -0.4516   10.1276    0.3506 S.3       1 <0>         0.1194
     30 C22         1.0706    6.5674    1.0517 C.3       1 <0>         0.2970
     31 H1          1.6235    6.5871    2.0025 H         1 <0>         0.1079
     32 C23         1.8270    5.9711   -0.1074 C.2       1 <0>        -0.1574
     33 C24         2.9872    5.2701   -0.0995 C.2       1 <0>        -0.1200
     34 C25         3.5028    4.8139   -1.2981 C.2       1 <0>        -0.1492
     35 C26         2.8331    5.0810   -2.4459 C.2       1 <0>        -0.1685
     36 S2          1.4236    5.9979   -1.8463 S.3       1 <0>         0.0459
     37 C27        -2.6057    5.4524    1.4930 C.3       1 <0>        -0.1134
     38 H2         -2.2759    0.7607   -1.3971 H         1 <0>         0.0701
     39 H3         -1.1265    2.1124   -1.6770 H         1 <0>         0.0660
     40 H4         -2.5194    2.3337   -0.5647 H         1 <0>         0.0687
     41 H5         -1.4587   -0.9119   -0.0433 H         1 <0>         0.1224
     42 H6         -0.0809   -1.6961    1.8387 H         1 <0>         0.1194
     43 H7          1.2310   -0.0892    3.1633 H         1 <0>         0.1221
     44 H8          1.1648    2.3080    2.6115 H         1 <0>         0.1501
     45 H9         -0.4340    3.7290   -0.3832 H         1 <0>         0.4315
     46 H10         1.5657   12.3829   -0.1889 H         1 <0>         0.1735
     47 H11         3.4146    9.5978   -1.5469 H         1 <0>         0.1148
     48 H12         5.8501    9.4278   -1.8087 H         1 <0>         0.1167
     49 H13         7.3402   10.9959   -0.6423 H         1 <0>         0.1191
     50 H14         6.4135   12.7615    0.7915 H         1 <0>         0.1354
     51 H15         3.5007    5.0708    0.8294 H         1 <0>         0.1320
     52 H16         4.4253    4.2528   -1.3196 H         1 <0>         0.1349
     53 H17         3.0848    4.8067   -3.4597 H         1 <0>         0.1865
     54 H18        -3.4999    6.0861    1.3992 H         1 <0>         0.0896
     55 H19        -2.5634    5.0254    2.5059 H         1 <0>         0.0847
     56 H20        -2.6535    4.6391    0.7539 H         1 <0>         0.0813
@<TRIPOS>BOND
     1    1    2 1
     2    1   38 1
     3    1   39 1
     4    1   40 1
     5    2    7 ar
     6    2    3 ar
     7    3    4 ar
     8    3   41 1
     9    4    5 ar
    10    4   42 1
    11    5    6 ar
    12    5   43 1
    13    6    7 ar
    14    6   44 1
    15    7    8 1
    16    8    9 am
    17    8   45 1
    18    9   10 2
    19    9   11 1
    20   11   30 1
    21   11   12 2
    22   12   13 1
    23   12   37 1
    24   13   14 2
    25   14   29 1
    26   14   15 1
    27   15   16 am
    28   15   30 1
    29   16   17 2
    30   16   18 1
    31   18   19 2
    32   18   29 1
    33   19   20 1
    34   19   46 1
    35   20   25 ar
    36   20   21 ar
    37   21   22 ar
    38   21   47 1
    39   22   23 ar
    40   22   48 1
    41   23   24 ar
    42   23   49 1
    43   24   25 ar
    44   24   50 1
    45   25   26 1
    46   26   27 2
    47   26   28 1
    48   30   31 1
    49   30   32 1
    50   32   36 1
    51   32   33 2
    52   33   34 1
    53   33   51 1
    54   34   35 2
    55   34   52 1
    56   35   36 1
    57   35   53 1
    58   37   54 1
    59   37   55 1
    60   37   56 1
@<TRIPOS>MOLECULE
ZINC08587303
   56    60     0     0     0
SMALL
USER_CHARGES

@<TRIPOS>ATOM
      1 C1          0.0237    1.4622    0.3897 C.ar      1 <0>        -0.0942
      2 C2          1.2219    2.1497    0.3276 C.ar      1 <0>        -0.1428
      3 C3          2.4153    1.4633    0.1898 C.ar      1 <0>        -0.0692
      4 C4          2.3968    0.0754    0.1059 C.ar      1 <0>        -0.1262
      5 C5          1.2044   -0.6048    0.1483 C.ar      1 <0>         0.2138
      6 C6          0.0066    0.0807    0.3029 C.ar      1 <0>        -0.1318
      7 N1          1.2104   -1.9930   -0.0054 N.pl3     1 <0>        -0.7107
      8 C7          1.7057   -2.8581    0.9426 C.2       1 <0>         0.3312
      9 C8          2.8377   -2.7498    1.5667 C.2       1 <0>        -0.2549
     10 C9          3.9936   -1.8069    1.4729 C.3       1 <0>         0.0471
     11 H1          3.9828   -1.1423    2.3367 H         1 <0>         0.0876
     12 S1          3.9132   -0.8132   -0.0415 S.3       1 <0>        -0.1413
     13 C10         5.2765   -2.5976    1.4750 C.ar      1 <0>        -0.0452
     14 C11         5.5186   -3.5244    0.4783 C.ar      1 <0>        -0.0745
     15 C12         6.6950   -4.2499    0.4797 C.ar      1 <0>        -0.1116
     16 C13         7.6305   -4.0483    1.4790 C.ar      1 <0>        -0.0354
     17 C14         7.3876   -3.1206    2.4762 C.ar      1 <0>        -0.1141
     18 C15         6.2133   -2.3917    2.4705 C.ar      1 <0>        -0.0936
     19 Cl1         9.1081   -4.9595    1.4818 Cl        1 <0>        -0.0817
     20 C16         0.8653   -4.0252    1.2840 C.2       1 <0>        -0.4714
     21 C17         0.5233   -4.9842    0.2966 C.2       1 <0>         0.5609
     22 N2         -0.2442   -6.0383    0.6378 N.am      1 <0>        -0.6726
     23 H2         -0.4803   -6.6968   -0.0340 H         1 <0>         0.4130
     24 C18        -0.6859   -6.1876    1.8988 C.2       1 <0>         0.7054
     25 O1         -1.3763   -7.1490    2.1768 O.2       1 <0>        -0.5755
     26 N3         -0.3807   -5.2976    2.8595 N.am      1 <0>        -0.5415
     27 C19         0.3996   -4.2080    2.5782 C.2       1 <0>         0.5073
     28 O2          0.7074   -3.3208    3.5461 O.3       1 <0>        -0.6507
     29 C20        -0.8830   -5.4986    4.2209 C.3       1 <0>         0.1536
     30 C21        -0.3618   -6.8300    4.7655 C.3       1 <0>        -0.1352
     31 C22        -0.8864   -7.0398    6.1874 C.3       1 <0>        -0.1116
     32 C23        -2.4161   -7.0602    6.1688 C.3       1 <0>        -0.1184
     33 C24        -2.9373   -5.7288    5.6242 C.3       1 <0>        -0.1116
     34 C25        -2.4128   -5.5189    4.2024 C.3       1 <0>        -0.1347
     35 O3          0.9189   -4.8563   -0.8483 O.2       1 <0>        -0.5785
     36 H3         -0.9021    2.0049    0.5108 H         1 <0>         0.1227
     37 H4          1.2262    3.2281    0.3866 H         1 <0>         0.1223
     38 H5          3.3516    1.9999    0.1475 H         1 <0>         0.1293
     39 H6         -0.9280   -0.4581    0.3552 H         1 <0>         0.1277
     40 H7          2.9754   -3.5094    2.3220 H         1 <0>         0.1046
     41 H8          4.7881   -3.6819   -0.3015 H         1 <0>         0.1402
     42 H9          6.8839   -4.9742   -0.2988 H         1 <0>         0.1322
     43 H10         8.1173   -2.9631    3.2567 H         1 <0>         0.1313
     44 H11         6.0257   -1.6641    3.2463 H         1 <0>         0.1316
     45 H12        -0.5382   -4.6850    4.8592 H         1 <0>         0.1084
     46 H13        -0.7066   -7.6435    4.1273 H         1 <0>         0.0860
     47 H14         0.7280   -6.8155    4.7787 H         1 <0>         0.0589
     48 H15        -0.5151   -7.9884    6.5753 H         1 <0>         0.0612
     49 H16        -0.5415   -6.2263    6.8256 H         1 <0>         0.0609
     50 H17        -2.7609   -7.8737    5.5306 H         1 <0>         0.0635
     51 H18        -2.7898   -7.2097    7.1818 H         1 <0>         0.0578
     52 H19        -4.0271   -5.7433    5.6110 H         1 <0>         0.0610
     53 H20        -2.5925   -4.9152    6.2625 H         1 <0>         0.0608
     54 H21        -2.7841   -4.5704    3.8144 H         1 <0>         0.0579
     55 H22        -2.7576   -6.3325    3.5641 H         1 <0>         0.0859
     56 H23         0.8462   -2.3666   -0.8231 H         1 <0>         0.4046
@<TRIPOS>BOND
     1    1    6 ar
     2    1    2 ar
     3    1   36 1
     4    2    3 ar
     5    2   37 1
     6    3    4 ar
     7    3   38 1
     8    4   12 1
     9    4    5 ar
    10    5    6 ar
    11    5    7 1
    12    6   39 1
    13    7    8 1
    14    7   56 1
    15    8    9 2
    16    8   20 1
    17    9   10 1
    18    9   40 1
    19   10   11 1
    20   10   12 1
    21   10   13 1
    22   13   18 ar
    23   13   14 ar
    24   14   15 ar
    25   14   41 1
    26   15   16 ar
    27   15   42 1
    28   16   17 ar
    29   16   19 1
    30   17   18 ar
    31   17   43 1
    32   18   44 1
    33   20   27 2
    34   20   21 1
    35   21   22 am
    36   21   35 2
    37   22   23 1
    38   22   24 am
    39   24   25 2
    40   24   26 am
    41   26   27 1
    42   26   29 1
    43   27   28 1
    44   29   34 1
    45   29   30 1
    46   29   45 1
    47   30   31 1
    48   30   46 1
    49   30   47 1
    50   31   32 1
    51   31   48 1
    52   31   49 1
    53   32   33 1
    54   32   50 1
    55   32   51 1
    56   33   34 1
    57   33   52 1
    58   33   53 1
    59   34   54 1
    60   34   55 1
@<TRIPOS>MOLECULE
ZINC43867193
   80    84     0     0     0
SMALL
USER_CHARGES

@<TRIPOS>ATOM
      1 C1          0.6560    1.3288   -1.1396 C.3       1 <0>        -0.1189
      2 C2          0.5789   -0.1759   -1.1075 C.2       1 <0>        -0.0957
      3 C3          1.6278   -0.8925   -1.4272 C.2       1 <0>        -0.2179
      4 C4         -0.7106   -0.8592   -0.7059 C.3       1 <0>        -0.0483
      5 H1         -0.5917   -1.9362   -0.7236 H         1 <0>         0.0957
      6 C5         -1.1265   -0.3554    0.7072 C.3       1 <0>        -0.1124
      7 C6         -2.6189    0.0514    0.6123 C.3       1 <0>        -0.1032
      8 C7         -3.0935   -0.6284   -0.6798 C.3       1 <0>        -0.1306
      9 C8         -1.8673   -0.4005   -1.6027 C.3       1 <0>        -0.0377
     10 H2         -1.7284    0.6773   -1.7693 H         1 <0>         0.0490
     11 C9         -2.0907   -1.1301   -2.9039 C.3       1 <0>        -0.0719
     12 H3         -2.2721   -2.1923   -2.7147 H         1 <0>         0.1209
     13 C10        -0.8758   -1.0269   -3.8240 C.3       1 <0>        -0.1158
     14 C11        -1.1346   -1.8564   -5.0788 C.3       1 <0>        -0.1108
     15 C12        -2.3545   -1.3583   -5.8445 C.3       1 <0>        -0.0504
     16 H4         -2.6440   -2.2572   -6.4840 H         1 <0>         0.0457
     17 C13        -1.9681   -0.3164   -6.8843 C.3       1 <0>        -0.0248
     18 C14        -0.9470    0.6494   -6.2931 C.3       1 <0>        -0.1115
     19 C15        -0.4375    1.6308   -7.3530 C.3       1 <0>        -0.1228
     20 C16        -1.6488    2.3501   -7.8967 C.2       1 <0>         0.1567
     21 N1         -1.7081    3.6301   -7.8791 N.2       1 <0>        -0.3415
     22 O1         -0.6323    4.3814   -7.3470 O.3       1 <0>        -0.4200
     23 C17        -2.7894    1.5362   -8.4544 C.3       1 <0>         0.0046
     24 C18        -3.1474    0.3621   -7.5506 C.3       1 <0>        -0.0468
     25 H5         -3.6084   -0.4062   -8.2221 H         1 <0>         0.0689
     26 C19        -4.2347    0.7502   -6.5610 C.3       1 <0>        -0.1115
     27 C20        -4.6861   -0.4179   -5.7041 C.3       1 <0>        -0.1089
     28 C21        -3.5616   -1.1421   -4.9709 C.3       1 <0>        -0.0177
     29 C22        -3.3167   -0.5237   -3.6048 C.3       1 <0>        -0.0193
     30 C23        -4.5427   -0.6925   -2.6966 C.3       1 <0>        -0.1043
     31 C24        -4.3241   -0.0382   -1.3234 C.3       1 <0>        -0.0860
     32 C25        -3.1126    0.9899   -3.7461 C.3       1 <0>        -0.1639
     33 C26        -4.1242   -2.5808   -4.7231 C.3       1 <0>        -0.1561
     34 C27        -2.4260    1.0478   -9.8645 C.3       1 <0>        -0.1436
     35 C28        -3.9893    2.4887   -8.6214 C.3       1 <0>        -0.1385
     36 C29        -1.2242   -1.1298   -7.9883 C.3       1 <0>        -0.1611
     37 C30        -3.3009   -2.0901   -0.3871 C.2       1 <0>         0.5163
     38 O2         -4.1245   -2.4347    0.4432 O.co2     1 <0>        -0.7048
     39 O3         -2.6452   -2.9296   -0.9802 O.co2     1 <0>        -0.6854
     40 H6          1.6551    1.6349   -1.4496 H         1 <0>         0.0523
     41 H7         -0.0781    1.7152   -1.8467 H         1 <0>         0.0655
     42 H8          0.4467    1.7246   -0.1458 H         1 <0>         0.0626
     43 H9          1.5726   -1.9708   -1.4042 H         1 <0>         0.0941
     44 H10         2.5479   -0.4049   -1.7138 H         1 <0>         0.0858
     45 H11        -0.9928   -1.1463    1.4423 H         1 <0>         0.0549
     46 H12        -0.5225    0.5128    0.9776 H         1 <0>         0.0515
     47 H13        -3.1766   -0.3283    1.4612 H         1 <0>         0.0650
     48 H14        -2.7171    1.1284    0.5225 H         1 <0>         0.0460
     49 H15        -0.6582    0.0015   -4.0747 H         1 <0>         0.0581
     50 H16        -0.0061   -1.4622   -3.3164 H         1 <0>         0.0547
     51 H17        -0.2450   -1.8398   -5.7097 H         1 <0>         0.0556
     52 H18        -1.3037   -2.8997   -4.7819 H         1 <0>         0.0573
     53 H19        -1.3735    1.2233   -5.4792 H         1 <0>         0.0797
     54 H20        -0.0874    0.0822   -5.9163 H         1 <0>         0.0764
     55 H21         0.2276    2.3576   -6.8754 H         1 <0>         0.0780
     56 H22         0.1002    1.1238   -8.1409 H         1 <0>         0.0837
     57 H23        -0.7681    5.3384   -7.3768 H         1 <0>         0.3970
     58 H24        -3.9487    1.6147   -5.9812 H         1 <0>         0.0711
     59 H25        -5.1507    1.0347   -7.1244 H         1 <0>         0.0508
     60 H26        -5.4364   -0.0778   -4.9830 H         1 <0>         0.0656
     61 H27        -5.1933   -1.1515   -6.3524 H         1 <0>         0.0511
     62 H28        -5.3971   -0.2112   -3.1748 H         1 <0>         0.0434
     63 H29        -4.7738   -1.7393   -2.5388 H         1 <0>         0.0677
     64 H30        -5.1965   -0.2539   -0.6867 H         1 <0>         0.0518
     65 H31        -4.2355    1.0413   -1.4093 H         1 <0>         0.0462
     66 H32        -2.1431    1.1846   -4.2046 H         1 <0>         0.0568
     67 H33        -3.9012    1.4058   -4.3732 H         1 <0>         0.0524
     68 H34        -3.1486    1.4549   -2.7609 H         1 <0>         0.0544
     69 H35        -3.3658   -3.1871   -4.2277 H         1 <0>         0.0626
     70 H36        -5.0106   -2.5205   -4.0917 H         1 <0>         0.0572
     71 H37        -4.3880   -3.0372   -5.6771 H         1 <0>         0.0410
     72 H38        -1.4558    0.5517   -9.8384 H         1 <0>         0.0644
     73 H39        -3.1838    0.3458  -10.2123 H         1 <0>         0.0673
     74 H40        -2.3805    1.8993  -10.5434 H         1 <0>         0.0568
     75 H41        -3.7217    3.2936   -9.3059 H         1 <0>         0.0598
     76 H42        -4.8383    1.9364   -9.0241 H         1 <0>         0.0568
     77 H43        -4.2565    2.9098   -7.6521 H         1 <0>         0.0610
     78 H44        -1.9388   -1.7574   -8.5208 H         1 <0>         0.0525
     79 H45        -0.7512   -0.4423   -8.6895 H         1 <0>         0.0570
     80 H46        -0.4628   -1.7580   -7.5259 H         1 <0>         0.0588
@<TRIPOS>BOND
     1    1    2 1
     2    1   40 1
     3    1   41 1
     4    1   42 1
     5    2    3 2
     6    2    4 1
     7    3   43 1
     8    3   44 1
     9    4    5 1
    10    4    9 1
    11    4    6 1
    12    6    7 1
    13    6   45 1
    14    6   46 1
    15    7    8 1
    16    7   47 1
    17    7   48 1
    18    8   31 1
    19    8    9 1
    20    8   37 1
    21    9   10 1
    22    9   11 1
    23   11   12 1
    24   11   29 1
    25   11   13 1
    26   13   14 1
    27   13   49 1
    28   13   50 1
    29   14   15 1
    30   14   51 1
    31   14   52 1
    32   15   16 1
    33   15   28 1
    34   15   17 1
    35   17   24 1
    36   17   18 1
    37   17   36 1
    38   18   19 1
    39   18   53 1
    40   18   54 1
    41   19   20 1
    42   19   55 1
    43   19   56 1
    44   20   21 2
    45   20   23 1
    46   21   22 1
    47   22   57 1
    48   23   24 1
    49   23   34 1
    50   23   35 1
    51   24   25 1
    52   24   26 1
    53   26   27 1
    54   26   58 1
    55   26   59 1
    56   27   28 1
    57   27   60 1
    58   27   61 1
    59   28   29 1
    60   28   33 1
    61   29   30 1
    62   29   32 1
    63   30   31 1
    64   30   62 1
    65   30   63 1
    66   31   64 1
    67   31   65 1
    68   32   66 1
    69   32   67 1
    70   32   68 1
    71   33   69 1
    72   33   70 1
    73   33   71 1
    74   34   72 1
    75   34   73 1
    76   34   74 1
    77   35   75 1
    78   35   76 1
    79   35   77 1
    80   36   78 1
    81   36   79 1
    82   36   80 1
    83   37   38 2
    84   37   39 1
@<TRIPOS>MOLECULE
ZINC22505848
   67    70     0     0     0
SMALL
USER_CHARGES

@<TRIPOS>ATOM
      1 C1         -0.0167    1.3791    0.0096 C.ar      1 <0>        -0.1186
      2 C2          1.1686    2.0922    0.0021 C.ar      1 <0>        -0.1240
      3 C3          2.3774    1.4265   -0.0135 C.ar      1 <0>        -0.0875
      4 C4          2.4024    0.0329   -0.0212 C.ar      1 <0>        -0.0192
      5 C5          1.2049   -0.6804   -0.0131 C.ar      1 <0>        -0.1056
      6 C6          0.0021   -0.0041    0.0020 C.ar      1 <0>        -0.1219
      7 C7          3.6983   -0.6882   -0.0385 C.2       1 <0>         0.1160
      8 C8          3.7272   -2.0550   -0.0513 C.2       1 <0>        -0.2509
      9 S1          5.4910   -2.3488   -0.0683 S.3       1 <0>         0.1242
     10 C9          6.0025   -0.6362   -0.0568 C.2       1 <0>         0.3284
     11 N1          4.8385   -0.0140   -0.0471 N.2       1 <0>        -0.5399
     12 N2          7.2851   -0.1016   -0.0623 N.am      1 <0>        -0.6115
     13 C10         8.3560   -0.9197   -0.0791 C.2       1 <0>         0.5174
     14 O1          8.2003   -2.1225   -0.0893 O.2       1 <0>        -0.4797
     15 C11         9.7471   -0.3400   -0.0851 C.3       1 <0>        -0.0951
     16 C12        10.7726   -1.4752   -0.1045 C.3       1 <0>        -0.1071
     17 H1         10.6042   -2.1735    0.7154 H         1 <0>         0.1277
     18 C13        12.1985   -0.9375   -0.0935 C.2       1 <0>         0.5191
     19 O2         12.6387   -0.2805    0.8298 O.2       1 <0>        -0.5533
     20 N3         12.9142   -1.2319   -1.1443 N.2       1 <0>        -0.7085
     21 C14        12.4778   -1.9450   -2.1743 C.2       1 <0>         0.4622
     22 S2         10.7894   -2.3392   -1.7316 S.3       1 <0>        -0.2222
     23 N4         13.1571   -2.2961   -3.3055 N.2       1 <0>        -0.4484
     24 N5         14.4876   -1.8924   -3.4773 N.2       1 <0>        -0.3139
     25 C15        15.1245   -2.2215   -4.5379 C.2       1 <0>         0.0952
     26 C16        14.4411   -3.0380   -5.6044 C.3       1 <0>        -0.0944
     27 C17        13.1183   -2.3714   -5.9877 C.3       1 <0>        -0.0962
     28 C18        13.1379   -2.0180   -7.4762 C.3       1 <0>        -0.1219
     29 C19        12.7445   -0.5505   -7.6571 C.3       1 <0>        -0.1224
     30 C20        13.8039    0.1612   -8.5010 C.3       1 <0>        -0.1189
     31 C21        14.3037    1.3994   -7.7541 C.3       1 <0>        -0.1240
     32 C22        15.8313    1.3659   -7.6761 C.3       1 <0>        -0.1193
     33 C23        16.2713    1.5271   -6.2196 C.3       1 <0>        -0.1241
     34 C24        17.1788    0.3590   -5.8287 C.3       1 <0>        -0.1196
     35 C25        16.6632   -0.2770   -4.5361 C.3       1 <0>        -0.1128
     36 C26        16.5557   -1.7873   -4.7227 C.3       1 <0>        -0.0534
     37 H2         -0.9603    1.9042    0.0260 H         1 <0>         0.1210
     38 H3          1.1480    3.1720    0.0081 H         1 <0>         0.1231
     39 H4          3.3022    1.9843   -0.0200 H         1 <0>         0.1321
     40 H5          1.2184   -1.7603   -0.0191 H         1 <0>         0.1247
     41 H6         -0.9264   -0.5557    0.0079 H         1 <0>         0.1240
     42 H7          2.9106   -2.7618   -0.0511 H         1 <0>         0.1959
     43 H8          7.4097    0.8603   -0.0541 H         1 <0>         0.4277
     44 H9          9.8774    0.2826   -0.9702 H         1 <0>         0.1114
     45 H10         9.8922    0.2655    0.8096 H         1 <0>         0.1212
     46 H11        15.0843   -3.1004   -6.4821 H         1 <0>         0.0561
     47 H12        14.2459   -4.0410   -5.2248 H         1 <0>         0.0613
     48 H13        12.2947   -3.0569   -5.7878 H         1 <0>         0.0557
     49 H14        12.9857   -1.4629   -5.4002 H         1 <0>         0.0734
     50 H15        14.1401   -2.1772   -7.8743 H         1 <0>         0.0617
     51 H16        12.4300   -2.6523   -8.0096 H         1 <0>         0.0500
     52 H17        11.7796   -0.4925   -8.1607 H         1 <0>         0.0515
     53 H18        12.6745   -0.0701   -6.6812 H         1 <0>         0.0673
     54 H19        14.6389   -0.5156   -8.6822 H         1 <0>         0.0659
     55 H20        13.3675    0.4628   -9.4532 H         1 <0>         0.0516
     56 H21        13.9866    2.2968   -8.2853 H         1 <0>         0.0525
     57 H22        13.8885    1.4080   -6.7463 H         1 <0>         0.0686
     58 H23        16.1940    0.4132   -8.0619 H         1 <0>         0.0663
     59 H24        16.2435    2.1799   -8.2724 H         1 <0>         0.0520
     60 H25        16.8162    2.4643   -6.1063 H         1 <0>         0.0529
     61 H26        15.3932    1.5370   -5.5738 H         1 <0>         0.0689
     62 H27        17.1770   -0.3849   -6.6254 H         1 <0>         0.0649
     63 H28        18.1943    0.7237   -5.6743 H         1 <0>         0.0531
     64 H29        17.3542   -0.0571   -3.7223 H         1 <0>         0.0570
     65 H30        15.6803    0.1296   -4.2981 H         1 <0>         0.0752
     66 H31        17.1843   -2.2837   -3.9834 H         1 <0>         0.0668
     67 H32        16.8907   -2.0569   -5.7243 H         1 <0>         0.0705
@<TRIPOS>BOND
     1    1    6 ar
     2    1    2 ar
     3    1   37 1
     4    2    3 ar
     5    2   38 1
     6    3    4 ar
     7    3   39 1
     8    4    5 ar
     9    4    7 1
    10    5    6 ar
    11    5   40 1
    12    6   41 1
    13    7   11 1
    14    7    8 2
    15    8    9 1
    16    8   42 1
    17    9   10 1
    18   10   11 2
    19   10   12 1
    20   12   13 am
    21   12   43 1
    22   13   14 2
    23   13   15 1
    24   15   16 1
    25   15   44 1
    26   15   45 1
    27   16   17 1
    28   16   22 1
    29   16   18 1
    30   18   19 2
    31   18   20 1
    32   20   21 2
    33   21   22 1
    34   21   23 1
    35   23   24 1
    36   24   25 2
    37   25   36 1
    38   25   26 1
    39   26   27 1
    40   26   46 1
    41   26   47 1
    42   27   28 1
    43   27   48 1
    44   27   49 1
    45   28   29 1
    46   28   50 1
    47   28   51 1
    48   29   30 1
    49   29   52 1
    50   29   53 1
    51   30   31 1
    52   30   54 1
    53   30   55 1
    54   31   32 1
    55   31   56 1
    56   31   57 1
    57   32   33 1
    58   32   58 1
    59   32   59 1
    60   33   34 1
    61   33   60 1
    62   33   61 1
    63   34   35 1
    64   34   62 1
    65   34   63 1
    66   35   36 1
    67   35   64 1
    68   35   65 1
    69   36   66 1
    70   36   67 1
@<TRIPOS>MOLECULE
ZINC04151481
   44    48     0     0     0
SMALL
USER_CHARGES
(3-bromophenyl)BLAHcarboxylic acid
@<TRIPOS>ATOM
      1 C1         -2.6226    7.2965   -1.3189 C.ar      1 <0>        -0.1125
      2 C2         -2.1338    6.0460   -1.6493 C.ar      1 <0>        -0.0801
      3 C3         -0.9223    5.6200   -1.1383 C.ar      1 <0>        -0.0447
      4 C4         -0.1937    6.4482   -0.3051 C.ar      1 <0>        -0.0839
      5 C5         -0.6797    7.7012    0.0214 C.ar      1 <0>        -0.0882
      6 C6         -1.8950    8.1251   -0.4860 C.ar      1 <0>        -0.0994
      7 Br1         0.3168    8.8348    1.1606 Br        1 <0>        -0.0631
      8 C7         -0.3925    4.2549   -1.4946 C.3       1 <0>         0.1090
      9 H1          0.6831    4.2250   -1.3209 H         1 <0>         0.1107
     10 C8         -1.0768    3.2024   -0.6304 C.3       1 <0>        -0.1093
     11 H2         -2.1470    3.3999   -0.5690 H         1 <0>         0.0768
     12 C9         -0.4332    3.2446    0.7916 C.3       1 <0>        -0.0924
     13 H3         -0.7869    4.0356    1.4528 H         1 <0>         0.0974
     14 C10         1.1023    3.2159    0.5203 C.3       1 <0>        -0.1367
     15 C11         1.3796    1.7874   -0.0015 C.3       1 <0>        -0.1263
     16 C12        -0.0127    1.0858    0.0080 C.3       1 <0>        -0.0918
     17 H4          0.0021   -0.0041    0.0020 H         1 <0>         0.0952
     18 C13        -0.6706    1.7657    1.2613 C.3       1 <0>        -0.1221
     19 C14        -0.8016    1.7646   -1.1531 C.3       1 <0>        -0.0361
     20 H5         -1.7388    1.2345   -1.3227 H         1 <0>         0.0789
     21 C15         0.0134    1.7456   -2.3911 C.ar      1 <0>        -0.1290
     22 C16         0.7433    0.6124   -2.7037 C.ar      1 <0>        -0.1125
     23 C17         1.4670    0.5421   -3.8820 C.ar      1 <0>        -0.1451
     24 C18         1.4728    1.5976   -4.7674 C.ar      1 <0>        -0.0764
     25 C19         0.7481    2.7561   -4.4668 C.ar      1 <0>        -0.0916
     26 C20         0.0325    2.8255   -3.2659 C.ar      1 <0>         0.1155
     27 N1         -0.6695    3.9750   -2.9163 N.pl3     1 <0>        -0.5811
     28 C21         0.7384    3.8916   -5.4050 C.2       1 <0>         0.4858
     29 O1          0.1070    4.8950   -5.1380 O.co2     1 <0>        -0.5947
     30 H6         -3.5715    7.6272   -1.7148 H         1 <0>         0.1290
     31 H7         -2.7007    5.4005   -2.3038 H         1 <0>         0.1266
     32 H8          0.7548    6.1168    0.0911 H         1 <0>         0.1282
     33 H9         -2.2747    9.1036   -0.2316 H         1 <0>         0.1275
     34 H10         1.6547    3.3976    1.4422 H         1 <0>         0.0609
     35 H11         1.3687    3.9549   -0.2354 H         1 <0>         0.0787
     36 H12         2.0711    1.2683    0.6621 H         1 <0>         0.0576
     37 H13         1.7795    1.8242   -1.0148 H         1 <0>         0.0786
     38 H14        -1.7281    1.5177    1.3529 H         1 <0>         0.0671
     39 H15        -0.1235    1.5482    2.1787 H         1 <0>         0.0674
     40 H16         0.7482   -0.2255   -2.0223 H         1 <0>         0.1114
     41 H17         2.0330   -0.3491   -4.1091 H         1 <0>         0.1132
     42 H18         2.0337    1.5313   -5.6879 H         1 <0>         0.1309
     43 H19        -1.6588    3.8571   -3.0755 H         1 <0>         0.3413
     44 O2          1.4298    3.8178   -6.5594 O.co2     1 <0>        -0.7701
@<TRIPOS>BOND
     1    1    6 ar
     2    1    2 ar
     3    1   30 1
     4    2    3 ar
     5    2   31 1
     6    3    4 ar
     7    3    8 1
     8    4    5 ar
     9    4   32 1
    10    5    6 ar
    11    5    7 1
    12    6   33 1
    13    8    9 1
    14    8   27 1
    15    8   10 1
    16   10   11 1
    17   10   19 1
    18   10   12 1
    19   12   13 1
    20   12   18 1
    21   12   14 1
    22   14   15 1
    23   14   34 1
    24   14   35 1
    25   15   16 1
    26   15   36 1
    27   15   37 1
    28   16   17 1
    29   16   18 1
    30   16   19 1
    31   18   38 1
    32   18   39 1
    33   19   20 1
    34   19   21 1
    35   21   26 ar
    36   21   22 ar
    37   22   23 ar
    38   22   40 1
    39   23   24 ar
    40   23   41 1
    41   24   25 ar
    42   24   42 1
    43   25   26 ar
    44   25   28 1
    45   26   27 1
    46   27   43 1
    47   28   29 2
    48   28   44 1
@<TRIPOS>MOLECULE
ZINC08848150
   35    37     0     0     0
SMALL
USER_CHARGES
4-[[5-(2-fluorophenyl)amino-1,3,4-thiadiazol-2-yl]sulfanylmethyl]benzoic acid
@<TRIPOS>ATOM
      1 C1         -0.0003    0.0757    0.7476 C.ar      1 <0>        -0.0931
      2 C2          1.1859   -0.6300    0.6638 C.ar      1 <0>        -0.1182
      3 C3          2.3654    0.0265    0.3636 C.ar      1 <0>        -0.1236
      4 C4          2.3619    1.3921    0.1465 C.ar      1 <0>         0.0565
      5 C5          1.1698    2.1040    0.2294 C.ar      1 <0>         0.1376
      6 C6         -0.0118    1.4400    0.5311 C.ar      1 <0>        -0.1330
      7 N1          1.1613    3.4852    0.0092 N.pl3     1 <0>        -0.6015
      8 C7         -0.0468    4.1673   -0.0810 C.2       1 <0>         0.3239
      9 N2         -1.2763    3.6907   -0.0965 N.2       1 <0>        -0.3516
     10 N3         -2.3440    4.5534   -0.1886 N.2       1 <0>        -0.2863
     11 C8         -2.1321    5.8531   -0.2723 C.2       1 <0>         0.0584
     12 S1         -0.3481    5.9229   -0.2147 S.3       1 <0>         0.0158
     13 S2         -3.2973    7.1681   -0.4055 S.3       1 <0>         0.0574
     14 C9         -4.9064    6.3306   -0.4031 C.3       1 <0>        -0.0566
     15 C10        -6.0061    7.3551   -0.5135 C.ar      1 <0>        -0.1018
     16 C11        -6.5545    7.9030    0.6327 C.ar      1 <0>        -0.1126
     17 C12        -7.5580    8.8448    0.5387 C.ar      1 <0>        -0.0794
     18 C13        -8.0276    9.2370   -0.7164 C.ar      1 <0>        -0.0960
     19 C14        -7.4734    8.6762   -1.8687 C.ar      1 <0>        -0.0883
     20 C15        -6.4667    7.7393   -1.7604 C.ar      1 <0>        -0.1118
     21 C16        -9.1056   10.2413   -0.8246 C.2       1 <0>         0.4863
     22 O1         -9.5118   10.5809   -1.9179 O.co2     1 <0>        -0.6282
     23 F1          3.5143    2.0338   -0.1459 F         1 <0>        -0.1397
     24 H1         -0.9194   -0.4406    0.9822 H         1 <0>         0.1357
     25 H2          1.1911   -1.6967    0.8329 H         1 <0>         0.1347
     26 H3          3.2901   -0.5278    0.2990 H         1 <0>         0.1405
     27 H4         -0.9399    1.9891    0.5921 H         1 <0>         0.1755
     28 H5          1.9982    3.9672   -0.0805 H         1 <0>         0.4329
     29 H6         -4.9611    5.6462   -1.2497 H         1 <0>         0.1047
     30 H7         -5.0232    5.7707    0.5249 H         1 <0>         0.1050
     31 H8         -6.1931    7.5956    1.6029 H         1 <0>         0.1210
     32 H9         -7.9821    9.2750    1.4340 H         1 <0>         0.1350
     33 H10        -7.8317    8.9754   -2.8426 H         1 <0>         0.1311
     34 H11        -6.0369    7.3049   -2.6509 H         1 <0>         0.1207
     35 O2         -9.6381   10.7805    0.2891 O.co2     1 <0>        -0.7510
@<TRIPOS>BOND
     1    1    6 ar
     2    1    2 ar
     3    1   24 1
     4    2    3 ar
     5    2   25 1
     6    3    4 ar
     7    3   26 1
     8    4    5 ar
     9    4   23 1
    10    5    6 ar
    11    5    7 1
    12    6   27 1
    13    7    8 1
    14    7   28 1
    15    8   12 1
    16    8    9 2
    17    9   10 1
    18   10   11 2
    19   11   12 1
    20   11   13 1
    21   13   14 1
    22   14   15 1
    23   14   29 1
    24   14   30 1
    25   15   20 ar
    26   15   16 ar
    27   16   17 ar
    28   16   31 1
    29   17   18 ar
    30   17   32 1
    31   18   19 ar
    32   18   21 1
    33   19   20 ar
    34   19   33 1
    35   20   34 1
    36   21   22 2
    37   21   35 1
@<TRIPOS>MOLECULE
ZINC16904468
   34    36     0     0     0
SMALL
USER_CHARGES
4-[[(5Z)-5-[(3-fluorophenyl)methylene]-4-oxo-thiazolidin-2-ylidene]amino]benzoic acid
@<TRIPOS>ATOM
      1 C1         -6.0768    5.2646   -5.4638 C.ar      1 <0>        -0.0931
      2 C2         -5.5429    6.3250   -4.7624 C.ar      1 <0>        -0.0983
      3 C3         -4.2584    6.2235   -4.2168 C.ar      1 <0>        -0.0554
      4 C4         -3.5290    5.0404   -4.3782 C.ar      1 <0>        -0.1318
      5 C5         -4.0792    3.9854   -5.0786 C.ar      1 <0>         0.1105
      6 C6         -5.3507    4.0972   -5.6202 C.ar      1 <0>        -0.1364
      7 F1         -3.3775    2.8417   -5.2361 F         1 <0>        -0.1268
      8 C7         -3.6806    7.3520   -3.4727 C.2       1 <0>         0.0442
      9 C8         -2.5173    7.1921   -2.7940 C.2       1 <0>        -0.2070
     10 C9         -1.6803    8.2036   -2.1169 C.2       1 <0>         0.5641
     11 O1         -1.9884    9.3807   -2.1054 O.2       1 <0>        -0.4938
     12 N1         -0.5808    7.7704   -1.5235 N.am      1 <0>        -0.6449
     13 C10        -0.2494    6.4349   -1.5465 C.2       1 <0>         0.3501
     14 N2          0.7974    5.8423   -1.0112 N.2       1 <0>        -0.4362
     15 C11         0.9575    4.4955   -1.1399 C.ar      1 <0>         0.0675
     16 C12         2.2091    3.9685   -1.4827 C.ar      1 <0>        -0.1020
     17 C13         2.3693    2.6202   -1.6110 C.ar      1 <0>        -0.0776
     18 C14         1.2826    1.7627   -1.4002 C.ar      1 <0>        -0.0994
     19 C15         0.0298    2.2897   -1.0632 C.ar      1 <0>        -0.0617
     20 C16        -0.1294    3.6376   -0.9291 C.ar      1 <0>        -0.1539
     21 C17         1.4557    0.3074   -1.5388 C.2       1 <0>         0.4866
     22 O2          2.5419   -0.1498   -1.8362 O.co2     1 <0>        -0.6281
     23 S1         -1.5798    5.7024   -2.4851 S.3       1 <0>        -0.0026
     24 H1         -7.0667    5.3438   -5.8884 H         1 <0>         0.1396
     25 H2         -6.1135    7.2334   -4.6377 H         1 <0>         0.1391
     26 H3         -2.5388    4.9527   -3.9559 H         1 <0>         0.1470
     27 H4         -5.7767    3.2687   -6.1665 H         1 <0>         0.1414
     28 H5         -4.1825    8.3083   -3.4666 H         1 <0>         0.1629
     29 H6         -0.0019    8.4007   -1.0669 H         1 <0>         0.4214
     30 H7          3.0473    4.6299   -1.6456 H         1 <0>         0.1260
     31 H8          3.3343    2.2138   -1.8757 H         1 <0>         0.1365
     32 H9         -0.8093    1.6284   -0.9050 H         1 <0>         0.1377
     33 H10        -1.0947    4.0438   -0.6651 H         1 <0>         0.1240
     34 O3          0.4096   -0.5181   -1.3359 O.co2     1 <0>        -0.7497
@<TRIPOS>BOND
     1    1    6 ar
     2    1    2 ar
     3    1   24 1
     4    2    3 ar
     5    2   25 1
     6    3    4 ar
     7    3    8 1
     8    4    5 ar
     9    4   26 1
    10    5    6 ar
    11    5    7 1
    12    6   27 1
    13    8    9 2
    14    8   28 1
    15    9   23 1
    16    9   10 1
    17   10   11 2
    18   10   12 am
    19   12   13 1
    20   12   29 1
    21   13   14 2
    22   13   23 1
    23   14   15 1
    24   15   20 ar
    25   15   16 ar
    26   16   17 ar
    27   16   30 1
    28   17   18 ar
    29   17   31 1
    30   18   19 ar
    31   18   21 1
    32   19   20 ar
    33   19   32 1
    34   20   33 1
    35   21   22 2
    36   21   34 1
@<TRIPOS>MOLECULE
ZINC36619602
   47    50     0     0     0
SMALL
USER_CHARGES

@<TRIPOS>ATOM
      1 C1         -0.0992    1.5001   -0.0726 C.3       1 <0>        -0.1015
      2 C2         -0.0408   -0.0055   -0.0423 C.2       1 <0>         0.1095
      3 C3         -0.0106   -0.6385    1.1481 C.2       1 <0>        -0.2669
      4 C4          0.0440   -2.0442    1.1965 C.2       1 <0>         0.3487
      5 C5          0.0657   -2.7557   -0.0132 C.2       1 <0>        -0.4612
      6 C6          0.0315   -2.0246   -1.2275 C.2       1 <0>         0.5117
      7 O1          0.0491   -2.6121   -2.2946 O.2       1 <0>        -0.5468
      8 O2         -0.0257   -0.6820   -1.1987 O.3       1 <0>        -0.2938
      9 C7          0.1227   -4.2187   -0.0210 C.2       1 <0>         0.4013
     10 N1          1.2732   -4.7221   -0.1233 N.2       1 <0>        -0.5657
     11 C8          1.8104   -5.9538   -0.1029 C.ar      1 <0>         0.1116
     12 C9          3.2079   -6.0293   -0.2683 C.ar      1 <0>        -0.0720
     13 C10         3.8576   -7.2399   -0.2576 C.ar      1 <0>        -0.1595
     14 C11         3.1412   -8.4113   -0.0818 C.ar      1 <0>        -0.1050
     15 C12         1.7734   -8.3599    0.0804 C.ar      1 <0>        -0.1722
     16 C13         1.0958   -7.1410    0.0698 C.ar      1 <0>         0.1611
     17 N2         -0.2807   -7.1860    0.2293 N.pl3     1 <0>        -0.7441
     18 C14        -1.0710   -6.1902    0.9145 C.3       1 <0>         0.1909
     19 H1         -2.0689   -6.5892    1.0962 H         1 <0>         0.0896
     20 C15        -1.1851   -4.9184    0.0988 C.3       1 <0>        -0.1485
     21 C16        -0.4208   -5.8667    2.2350 C.2       1 <0>        -0.1127
     22 C17        -1.0417   -6.1599    3.3690 C.2       1 <0>        -0.1317
     23 C18        -0.4040   -5.8426    4.6642 C.ar      1 <0>        -0.0376
     24 C19         0.8489   -5.2292    4.6966 C.ar      1 <0>        -0.0891
     25 C20         1.4388   -4.9357    5.9089 C.ar      1 <0>        -0.1183
     26 C21         0.7909   -5.2486    7.0905 C.ar      1 <0>        -0.1305
     27 C22        -0.4512   -5.8572    7.0652 C.ar      1 <0>        -0.1281
     28 C23        -1.0549   -6.1499    5.8595 C.ar      1 <0>        -0.1190
     29 O3          0.0752   -2.6943    2.3814 O.3       1 <0>        -0.6509
     30 H2         -0.1222    1.8420   -1.1073 H         1 <0>         0.0747
     31 H3         -0.9981    1.8392    0.4423 H         1 <0>         0.0840
     32 H4          0.7805    1.9079    0.4254 H         1 <0>         0.0839
     33 H5         -0.0280   -0.0669    2.0643 H         1 <0>         0.1306
     34 H6          3.7768   -5.1217   -0.4060 H         1 <0>         0.1223
     35 H7          4.9292   -7.2777   -0.3869 H         1 <0>         0.1159
     36 H8          3.6524   -9.3626   -0.0721 H         1 <0>         0.1148
     37 H9          1.2185   -9.2764    0.2168 H         1 <0>         0.1119
     38 H10        -0.7498   -7.9459   -0.1493 H         1 <0>         0.3898
     39 H11        -1.9028   -4.2517    0.5769 H         1 <0>         0.0911
     40 H12        -1.5459   -5.1712   -0.8982 H         1 <0>         0.0826
     41 H13         0.5509   -5.3959    2.2575 H         1 <0>         0.1257
     42 H14        -2.0134   -6.6306    3.3465 H         1 <0>         0.1107
     43 H15         1.3560   -4.9851    3.7748 H         1 <0>         0.1266
     44 H16         2.4085   -4.4610    5.9354 H         1 <0>         0.1181
     45 H17         1.2570   -5.0171    8.0368 H         1 <0>         0.1151
     46 H18        -0.9515   -6.0996    7.9911 H         1 <0>         0.1160
     47 H19        -2.0269   -6.6203    5.8410 H         1 <0>         0.1172
@<TRIPOS>BOND
     1    1    2 1
     2    1   30 1
     3    1   31 1
     4    1   32 1
     5    2    8 1
     6    2    3 2
     7    3    4 1
     8    3   33 1
     9    4    5 2
    10    4   29 1
    11    5    6 1
    12    5    9 1
    13    6    7 2
    14    6    8 1
    15    9   20 1
    16    9   10 2
    17   10   11 1
    18   11   16 ar
    19   11   12 ar
    20   12   13 ar
    21   12   34 1
    22   13   14 ar
    23   13   35 1
    24   14   15 ar
    25   14   36 1
    26   15   16 ar
    27   15   37 1
    28   16   17 1
    29   17   18 1
    30   17   38 1
    31   18   19 1
    32   18   20 1
    33   18   21 1
    34   20   39 1
    35   20   40 1
    36   21   22 2
    37   21   41 1
    38   22   23 1
    39   22   42 1
    40   23   28 ar
    41   23   24 ar
    42   24   25 ar
    43   24   43 1
    44   25   26 ar
    45   25   44 1
    46   26   27 ar
    47   26   45 1
    48   27   28 ar
    49   27   46 1
    50   28   47 1
@<TRIPOS>MOLECULE
ZINC49488826
   50    51     0     0     0
SMALL
USER_CHARGES

@<TRIPOS>ATOM
      1 C1         -0.0187    1.5258    0.0104 C.3       1 <0>        -0.1383
      2 C2          0.0021   -0.0041    0.0020 C.3       1 <0>        -0.0289
      3 C3          0.7421   -0.5109    1.2415 C.3       1 <0>        -0.1382
      4 C4         -1.4333   -0.5336    0.0129 C.3       1 <0>        -0.1431
      5 C5          0.7074   -0.4901   -1.2379 C.ar      1 <0>        -0.0791
      6 C6          0.0316   -1.2852   -2.1473 C.ar      1 <0>        -0.1231
      7 C7          0.6696   -1.7340   -3.2840 C.ar      1 <0>        -0.1060
      8 C8          2.0041   -1.3835   -3.5171 C.ar      1 <0>        -0.0524
      9 C9          2.6801   -0.5793   -2.5928 C.ar      1 <0>        -0.1092
     10 C10         2.0259   -0.1342   -1.4639 C.ar      1 <0>        -0.1147
     11 C11         2.6925   -1.8581   -4.7266 C.2       1 <0>        -0.0805
     12 C12         3.9831   -1.5170   -4.9485 C.2       1 <0>        -0.1440
     13 C13         4.6443   -1.9728   -6.1103 C.2       1 <0>         0.3626
     14 O1          3.9884   -2.7494   -7.0001 O.3       1 <0>        -0.6055
     15 C14         5.9758   -1.6209   -6.3392 C.2       1 <0>        -0.4198
     16 C15         6.6711   -0.7977   -5.3961 C.1       1 <0>         0.3007
     17 N1          7.2227   -0.1447   -4.6479 N.1       1 <0>        -0.5456
     18 C16         6.6616   -2.0937   -7.5443 C.2       1 <0>         0.5919
     19 O2          6.0705   -2.7935   -8.3460 O.2       1 <0>        -0.5466
     20 N2          7.9470   -1.7540   -7.7652 N.am      1 <0>        -0.7515
     21 C17         8.6328   -2.2269   -8.9703 C.3       1 <0>         0.1664
     22 C18        10.0486   -1.7107   -8.9778 C.ar      1 <0>        -0.0951
     23 C19        10.3373   -0.4929   -9.5649 C.ar      1 <0>        -0.1029
     24 C20        11.6360   -0.0194   -9.5717 C.ar      1 <0>        -0.1241
     25 C21        12.6460   -0.7634   -8.9910 C.ar      1 <0>        -0.1219
     26 C22        12.3572   -1.9808   -8.4031 C.ar      1 <0>        -0.1241
     27 C23        11.0578   -2.4523   -8.3925 C.ar      1 <0>        -0.1029
     28 H1          1.0039    1.9031    0.0027 H         1 <0>         0.0570
     29 H2         -0.5459    1.8868   -0.8726 H         1 <0>         0.0562
     30 H3         -0.5289    1.8773    0.9072 H         1 <0>         0.0555
     31 H4          0.2319   -0.1594    2.1383 H         1 <0>         0.0554
     32 H5          0.7568   -1.6008    1.2356 H         1 <0>         0.0562
     33 H6          1.7647   -0.1336    1.2338 H         1 <0>         0.0570
     34 H7         -1.9605   -0.1726   -0.8702 H         1 <0>         0.0585
     35 H8         -1.4185   -1.6235    0.0069 H         1 <0>         0.0585
     36 H9         -1.9435   -0.1821    0.9097 H         1 <0>         0.0552
     37 H10        -0.9982   -1.5551   -1.9656 H         1 <0>         0.1242
     38 H11         0.1411   -2.3546   -3.9924 H         1 <0>         0.1246
     39 H12         3.7102   -0.3044   -2.7656 H         1 <0>         0.1252
     40 H13         2.5448    0.4904   -0.7518 H         1 <0>         0.1183
     41 H14         2.1681   -2.4789   -5.4380 H         1 <0>         0.1346
     42 H15         4.5075   -0.8961   -4.2372 H         1 <0>         0.1101
     43 H16         8.4180   -1.1964   -7.1264 H         1 <0>         0.3888
     44 H17         8.6434   -3.3168   -8.9783 H         1 <0>         0.0667
     45 H18         8.1085   -1.8621   -9.8536 H         1 <0>         0.0667
     46 H19         9.5482    0.0884  -10.0185 H         1 <0>         0.1238
     47 H20        11.8616    0.9317  -10.0310 H         1 <0>         0.1204
     48 H21        13.6607   -0.3938   -8.9970 H         1 <0>         0.1187
     49 H22        13.1464   -2.5622   -7.9497 H         1 <0>         0.1204
     50 H23        10.8316   -3.4016   -7.9299 H         1 <0>         0.1238
@<TRIPOS>BOND
     1    1    2 1
     2    1   28 1
     3    1   29 1
     4    1   30 1
     5    2    3 1
     6    2    4 1
     7    2    5 1
     8    3   31 1
     9    3   32 1
    10    3   33 1
    11    4   34 1
    12    4   35 1
    13    4   36 1
    14    5   10 ar
    15    5    6 ar
    16    6    7 ar
    17    6   37 1
    18    7    8 ar
    19    7   38 1
    20    8    9 ar
    21    8   11 1
    22    9   10 ar
    23    9   39 1
    24   10   40 1
    25   11   12 2
    26   11   41 1
    27   12   13 1
    28   12   42 1
    29   13   14 1
    30   13   15 2
    31   15   16 1
    32   15   18 1
    33   16   17 3
    34   18   19 2
    35   18   20 am
    36   20   21 1
    37   20   43 1
    38   21   22 1
    39   21   44 1
    40   21   45 1
    41   22   27 ar
    42   22   23 ar
    43   23   24 ar
    44   23   46 1
    45   24   25 ar
    46   24   47 1
    47   25   26 ar
    48   25   48 1
    49   26   27 ar
    50   26   49 1
    51   27   50 1
@<TRIPOS>MOLECULE
ZINC20226933
   47    50     0     0     0
SMALL
USER_CHARGES

@<TRIPOS>ATOM
      1 C1         -1.8762   -5.2112   -0.9698 C.3       1 <0>        -0.1528
      2 C2         -1.0219   -3.9924   -0.6154 C.3       1 <0>        -0.1244
      3 C3         -0.2441   -4.2718    0.6722 C.3       1 <0>        -0.1152
      4 C4          0.6101   -3.0529    1.0266 C.3       1 <0>        -0.0668
      5 C5          1.3763   -3.3281    2.2948 C.ar      1 <0>        -0.1382
      6 C6          0.8187   -3.0117    3.5201 C.ar      1 <0>        -0.1023
      7 C7          1.5182   -3.2622    4.6842 C.ar      1 <0>        -0.1524
      8 C8          2.7831   -3.8330    4.6233 C.ar      1 <0>         0.1597
      9 C9          3.3401   -4.1500    3.3910 C.ar      1 <0>        -0.1416
     10 C10         2.6330   -3.9017    2.2310 C.ar      1 <0>        -0.1057
     11 N1          3.4942   -4.0874    5.7998 N.2       1 <0>        -0.5756
     12 C11         2.8223   -4.2601    6.9841 C.2       1 <0>         0.4505
     13 N2          1.5205   -4.3967    7.1782 N.2       1 <0>        -0.7133
     14 C12         0.9994   -4.5573    8.3752 C.2       1 <0>         0.5298
     15 O1         -0.2044   -4.6828    8.5414 O.2       1 <0>        -0.5416
     16 C13         1.9473   -4.5783    9.5076 C.2       1 <0>        -0.2066
     17 C14         1.7106   -4.7264   10.8405 C.2       1 <0>         0.0334
     18 C15         0.3374   -4.7384   11.3423 C.2       1 <0>        -0.1656
     19 C16        -0.6953   -3.9462   10.9220 C.2       1 <0>         0.1420
     20 N3         -1.8171   -4.2483   11.6222 N.pl3     1 <0>        -0.5870
     21 H1         -2.6778   -3.8179   11.5006 H         1 <0>         0.4149
     22 C17        -1.5614   -5.2542   12.5317 C.ar      1 <0>         0.0846
     23 C18        -0.2102   -5.6120   12.3977 C.ar      1 <0>        -0.0765
     24 C19         0.3285   -6.6170   13.1961 C.ar      1 <0>        -0.0761
     25 C20        -0.4714   -7.2606   14.1155 C.ar      1 <0>        -0.1471
     26 C21        -1.8072   -6.9112   14.2466 C.ar      1 <0>        -0.1117
     27 C22        -2.3514   -5.9126   13.4681 C.ar      1 <0>        -0.1271
     28 S1          3.4939   -4.3626    8.6359 S.3       1 <0>        -0.1458
     29 H2         -2.5762   -5.4125   -0.1589 H         1 <0>         0.0533
     30 H3         -2.4303   -5.0122   -1.8871 H         1 <0>         0.0496
     31 H4         -1.2307   -6.0772   -1.1160 H         1 <0>         0.0527
     32 H5         -0.3220   -3.7911   -1.4263 H         1 <0>         0.0584
     33 H6         -1.6675   -3.1263   -0.4693 H         1 <0>         0.0586
     34 H7         -0.9441   -4.4731    1.4831 H         1 <0>         0.0619
     35 H8          0.4014   -5.1378    0.5260 H         1 <0>         0.0610
     36 H9          1.3101   -2.8516    0.2157 H         1 <0>         0.0613
     37 H10        -0.0354   -2.1869    1.1727 H         1 <0>         0.0612
     38 H11        -0.1648   -2.5679    3.5667 H         1 <0>         0.1046
     39 H12         1.0825   -3.0142    5.6408 H         1 <0>         0.1351
     40 H13         4.3235   -4.5936    3.3402 H         1 <0>         0.1131
     41 H14         3.0638   -4.1517    1.2727 H         1 <0>         0.1086
     42 H15         2.5373   -4.8351   11.5269 H         1 <0>         0.1264
     43 H16        -0.6276   -3.1938   10.1502 H         1 <0>         0.1753
     44 H17         1.3682   -6.8914   13.0953 H         1 <0>         0.1209
     45 H18        -0.0564   -8.0408   14.7364 H         1 <0>         0.1195
     46 H19        -2.4253   -7.4224   14.9698 H         1 <0>         0.1206
     47 H20        -3.3932   -5.6492   13.5772 H         1 <0>         0.1160
@<TRIPOS>BOND
     1    1    2 1
     2    1   29 1
     3    1   30 1
     4    1   31 1
     5    2    3 1
     6    2   32 1
     7    2   33 1
     8    3    4 1
     9    3   34 1
    10    3   35 1
    11    4    5 1
    12    4   36 1
    13    4   37 1
    14    5   10 ar
    15    5    6 ar
    16    6    7 ar
    17    6   38 1
    18    7    8 ar
    19    7   39 1
    20    8    9 ar
    21    8   11 1
    22    9   10 ar
    23    9   40 1
    24   10   41 1
    25   11   12 1
    26   12   28 1
    27   12   13 2
    28   13   14 1
    29   14   15 2
    30   14   16 1
    31   16   17 2
    32   16   28 1
    33   17   18 1
    34   17   42 1
    35   18   23 1
    36   18   19 2
    37   19   20 1
    38   19   43 1
    39   20   21 1
    40   20   22 1
    41   22   27 ar
    42   22   23 ar
    43   23   24 ar
    44   24   25 ar
    45   24   44 1
    46   25   26 ar
    47   25   45 1
    48   26   27 ar
    49   26   46 1
    50   27   47 1
@<TRIPOS>MOLECULE
ZINC13417093
   45    48     0     0     0
SMALL
USER_CHARGES
4-[(E)-3-[(4-indan-5-ylthiazol-2-yl)amino]-3-oxo-prop-1-enyl]benzoic acid
@<TRIPOS>ATOM
      1 C1         -4.3067    6.1605    0.0513 C.ar      1 <0>        -0.1066
      2 C2         -5.3835    7.0175    0.0654 C.ar      1 <0>        -0.0859
      3 C3         -5.1771    8.3995    0.0723 C.ar      1 <0>        -0.0862
      4 C4         -3.8774    8.9126    0.0695 C.ar      1 <0>        -0.0949
      5 C5         -2.7993    8.0571    0.0599 C.ar      1 <0>        -0.0995
      6 C6         -3.0050    6.6733    0.0534 C.ar      1 <0>        -0.1090
      7 C7         -1.8523    5.7573    0.0426 C.2       1 <0>         0.0373
      8 C8         -2.0510    4.4242    0.0364 C.2       1 <0>        -0.2515
      9 C9         -0.9037    3.5125    0.0257 C.2       1 <0>         0.5580
     10 O1          0.2283    3.9590    0.0224 O.2       1 <0>        -0.5094
     11 N1         -1.1023    2.1795    0.0194 N.am      1 <0>        -0.6070
     12 C10        -0.0158    1.3160    0.0093 C.2       1 <0>         0.3276
     13 N2          0.0021   -0.0041    0.0020 N.2       1 <0>        -0.5382
     14 C11         1.1433   -0.6762   -0.0125 C.2       1 <0>         0.1209
     15 C12         2.3259    0.0100   -0.0201 C.2       1 <0>        -0.2494
     16 S1          1.7307    1.6961   -0.0054 S.3       1 <0>         0.1178
     17 C13         1.1385   -2.1593   -0.0199 C.ar      1 <0>        -0.0210
     18 C14         2.3413   -2.8637   -0.0405 C.ar      1 <0>        -0.1036
     19 C15         2.3282   -4.2421   -0.0425 C.ar      1 <0>        -0.1086
     20 C16         1.1256   -4.9320   -0.0346 C.ar      1 <0>        -0.0951
     21 C17        -0.0710   -4.2379   -0.0196 C.ar      1 <0>        -0.1011
     22 C18        -0.0677   -2.8552   -0.0122 C.ar      1 <0>        -0.0733
     23 C19        -1.2283   -5.2140   -0.0139 C.3       1 <0>        -0.0828
     24 C20        -0.6240   -6.5597   -0.4677 C.3       1 <0>        -0.1209
     25 C21         0.8523   -6.4212   -0.0398 C.3       1 <0>        -0.0828
     26 C22        -6.3338    9.3187    0.0821 C.2       1 <0>         0.4844
     27 O2         -6.1547   10.5201    0.0877 O.co2     1 <0>        -0.6258
     28 H1         -4.4664    5.0924    0.0419 H         1 <0>         0.1233
     29 H2         -6.3884    6.6218    0.0672 H         1 <0>         0.1362
     30 H3         -3.7188    9.9809    0.0745 H         1 <0>         0.1329
     31 H4         -1.7949    8.4539    0.0570 H         1 <0>         0.1243
     32 H5         -0.8477    6.1536    0.0397 H         1 <0>         0.1357
     33 H6         -3.0556    4.0280    0.0393 H         1 <0>         0.1393
     34 H7         -2.0046    1.8235    0.0220 H         1 <0>         0.4289
     35 H8          3.3393   -0.3632   -0.0318 H         1 <0>         0.1967
     36 H9          3.2807   -2.3310   -0.0508 H         1 <0>         0.1268
     37 H10         3.2601   -4.7879   -0.0543 H         1 <0>         0.1225
     38 H11        -1.0022   -2.3139   -0.0008 H         1 <0>         0.1304
     39 H12        -1.6418   -5.3045    0.9905 H         1 <0>         0.0800
     40 H13        -1.9992   -4.8906   -0.7134 H         1 <0>         0.0754
     41 H14        -0.7050   -6.6759   -1.5484 H         1 <0>         0.0723
     42 H15        -1.1008   -7.3924    0.0494 H         1 <0>         0.0764
     43 H16         1.5024   -6.9225   -0.7569 H         1 <0>         0.0744
     44 H17         0.9975   -6.8359    0.9577 H         1 <0>         0.0798
     45 O3         -7.5870    8.8244    0.0848 O.co2     1 <0>        -0.7488
@<TRIPOS>BOND
     1    1    6 ar
     2    1    2 ar
     3    1   28 1
     4    2    3 ar
     5    2   29 1
     6    3    4 ar
     7    3   26 1
     8    4    5 ar
     9    4   30 1
    10    5    6 ar
    11    5   31 1
    12    6    7 1
    13    7    8 2
    14    7   32 1
    15    8    9 1
    16    8   33 1
    17    9   10 2
    18    9   11 am
    19   11   12 1
    20   11   34 1
    21   12   16 1
    22   12   13 2
    23   13   14 1
    24   14   15 2
    25   14   17 1
    26   15   16 1
    27   15   35 1
    28   17   22 ar
    29   17   18 ar
    30   18   19 ar
    31   18   36 1
    32   19   20 ar
    33   19   37 1
    34   20   25 1
    35   20   21 ar
    36   21   22 ar
    37   21   23 1
    38   22   38 1
    39   23   24 1
    40   23   39 1
    41   23   40 1
    42   24   25 1
    43   24   41 1
    44   24   42 1
    45   25   43 1
    46   25   44 1
    47   26   27 2
    48   26   45 1
@<TRIPOS>MOLECULE
ZINC34222223
   33    36     0     0     0
SMALL
USER_CHARGES

@<TRIPOS>ATOM
      1 C1          1.0759   -0.5361   -0.7789 C.ar      1 <0>        -0.1251
      2 C2          2.2510    0.1815   -0.8845 C.ar      1 <0>        -0.1364
      3 C3          2.3499    1.4384   -0.3115 C.ar      1 <0>         0.0435
      4 C4          1.2710    1.9788    0.3681 C.ar      1 <0>        -0.1407
      5 C5          0.0938    1.2650    0.4758 C.ar      1 <0>        -0.1109
      6 C6         -0.0076    0.0039   -0.0977 C.ar      1 <0>         0.1474
      7 N1         -1.1987   -0.7207    0.0101 N.2       1 <0>        -0.5548
      8 C7         -1.1823   -2.0820   -0.1005 C.2       1 <0>         0.4360
      9 N2         -0.1337   -2.8904   -0.1262 N.2       1 <0>        -0.7053
     10 C8         -0.2490   -4.1943   -0.2372 C.2       1 <0>         0.5142
     11 O1          0.7231   -4.9286   -0.2594 O.2       1 <0>        -0.4805
     12 C9         -1.6417   -4.7232   -0.3339 C.2       1 <0>        -0.0622
     13 C10        -2.0868   -6.0216   -0.4565 C.2       1 <0>        -0.0984
     14 C11        -3.4856   -6.4877   -0.5544 C.ar      1 <0>        -0.0950
     15 C12        -4.7122   -5.8282   -0.5550 C.ar      1 <0>        -0.0270
     16 C13        -5.8804   -6.5562   -0.6638 C.ar      1 <0>        -0.1172
     17 C14        -5.8306   -7.9370   -0.7719 C.ar      1 <0>        -0.0540
     18 C15        -4.6193   -8.5997   -0.7722 C.ar      1 <0>        -0.1389
     19 C16        -3.4321   -7.8849   -0.6636 C.ar      1 <0>         0.1725
     20 N3         -2.1041   -8.2983   -0.6390 N.am      1 <0>        -0.6580
     21 C17        -1.2674   -7.2527   -0.5252 C.2       1 <0>         0.5613
     22 O2         -0.0533   -7.3082   -0.4836 O.2       1 <0>        -0.4484
     23 Br1        -7.5500   -5.6684   -0.6647 Br        1 <0>        -0.0484
     24 S1         -2.5702   -3.1976   -0.2370 S.3       1 <0>        -0.0778
     25 F1          3.5008    2.1383   -0.4152 F         1 <0>        -0.1551
     26 H1          0.9979   -1.5145   -1.2294 H         1 <0>         0.1475
     27 H2          3.0937   -0.2379   -1.4140 H         1 <0>         0.1228
     28 H3          1.3505    2.9590    0.8145 H         1 <0>         0.1258
     29 H4         -0.7473    1.6866    1.0062 H         1 <0>         0.1273
     30 H5         -4.7495   -4.7522   -0.4703 H         1 <0>         0.1413
     31 H6         -6.7483   -8.5002   -0.8563 H         1 <0>         0.1395
     32 H7         -4.5942   -9.6760   -0.8570 H         1 <0>         0.1366
     33 H8         -1.8182   -9.2231   -0.7004 H         1 <0>         0.4181
@<TRIPOS>BOND
     1    1    6 ar
     2    1    2 ar
     3    1   26 1
     4    2    3 ar
     5    2   27 1
     6    3    4 ar
     7    3   25 1
     8    4    5 ar
     9    4   28 1
    10    5    6 ar
    11    5   29 1
    12    6    7 1
    13    7    8 1
    14    8   24 1
    15    8    9 2
    16    9   10 1
    17   10   11 2
    18   10   12 1
    19   12   13 2
    20   12   24 1
    21   13   21 1
    22   13   14 1
    23   14   19 ar
    24   14   15 ar
    25   15   16 ar
    26   15   30 1
    27   16   17 ar
    28   16   23 1
    29   17   18 ar
    30   17   31 1
    31   18   19 ar
    32   18   32 1
    33   19   20 1
    34   20   21 am
    35   20   33 1
    36   21   22 2
@<TRIPOS>MOLECULE
ZINC39887094
   49    52     0     0     0
SMALL
USER_CHARGES

@<TRIPOS>ATOM
      1 C1          0.1355    1.4049    0.0705 C.3       1 <0>        -0.1500
      2 C2          0.1188   -0.1230   -0.0077 C.3       1 <0>        -0.1181
      3 C3         -1.3291   -0.6175   -0.0154 C.3       1 <0>        -0.0798
      4 C4         -1.9868   -0.2900    1.3266 C.3       1 <0>        -0.1511
      5 C5         -3.4345   -0.7852    1.3196 C.3       1 <0>        -0.1325
      6 C6         -3.4539   -2.2990    1.0979 C.3       1 <0>         0.4096
      7 C7         -2.7977   -2.6255   -0.2454 C.3       1 <0>        -0.1337
      8 C8         -1.3498   -2.1309   -0.2384 C.3       1 <0>        -0.1424
      9 N1         -4.8383   -2.7756    1.0937 N.am      1 <0>        -0.7408
     10 C9         -5.1335   -4.0278    1.4963 C.2       1 <0>         0.5971
     11 O1         -6.2813   -4.4318    1.4480 O.2       1 <0>        -0.5662
     12 C10        -4.0659   -4.8998    1.9916 C.2       1 <0>        -0.3126
     13 C11        -2.8356   -4.3151    2.3351 C.2       1 <0>         0.4316
     14 N2         -2.7072   -2.9574    2.1754 N.pl3     1 <0>        -0.5645
     15 C12        -1.8821   -2.2175    3.0226 C.ar      1 <0>         0.2113
     16 C13        -2.4264   -1.3051    3.9011 C.ar      1 <0>        -0.1554
     17 C14        -1.6122   -0.5621    4.7504 C.ar      1 <0>        -0.1023
     18 C15        -0.2591   -0.7144    4.7383 C.ar      1 <0>        -0.1250
     19 C16         0.3356   -1.6342    3.8582 C.ar      1 <0>        -0.0286
     20 C17        -0.4831   -2.4005    2.9923 C.ar      1 <0>        -0.0493
     21 C18         0.1122   -3.3221    2.1169 C.ar      1 <0>        -0.0012
     22 C19         1.4655   -3.4722    2.1145 C.ar      1 <0>        -0.1674
     23 C20         2.2714   -2.7231    2.9697 C.ar      1 <0>        -0.0868
     24 C21         1.7297   -1.8120    3.8235 C.ar      1 <0>        -0.1512
     25 S1         -1.5030   -5.2905    2.9496 S.3       1 <0>        -0.7637
     26 C22        -4.2711   -6.3110    2.1228 C.1       1 <0>         0.3343
     27 N3         -4.4339   -7.4304    2.2269 N.1       1 <0>        -0.4920
     28 H1          1.1670    1.7571    0.0760 H         1 <0>         0.0490
     29 H2         -0.3852    1.8187   -0.7930 H         1 <0>         0.0488
     30 H3         -0.3634    1.7273    0.9845 H         1 <0>         0.0554
     31 H4          0.6177   -0.4455   -0.9217 H         1 <0>         0.0577
     32 H5          0.6395   -0.5368    0.8558 H         1 <0>         0.0661
     33 H6         -1.8771   -0.1245   -0.8183 H         1 <0>         0.0626
     34 H7         -1.4383   -0.7822    2.1297 H         1 <0>         0.1086
     35 H8         -1.9725    0.7884    1.4847 H         1 <0>         0.0668
     36 H9         -3.9031   -0.5519    2.2756 H         1 <0>         0.0802
     37 H10        -3.9830   -0.2933    0.5163 H         1 <0>         0.0802
     38 H11        -2.8127   -3.7037   -0.4047 H         1 <0>         0.0736
     39 H12        -3.3465   -2.1319   -1.0474 H         1 <0>         0.0756
     40 H13        -0.8817   -2.3637   -1.1948 H         1 <0>         0.0628
     41 H14        -0.8013   -2.6240    0.5642 H         1 <0>         0.0966
     42 H15        -5.5491   -2.1854    0.7985 H         1 <0>         0.4007
     43 H16        -3.4969   -1.1652    3.9302 H         1 <0>         0.1213
     44 H17        -2.0608    0.1472    5.4301 H         1 <0>         0.1196
     45 H18         0.3566   -0.1283    5.4044 H         1 <0>         0.1207
     46 H19        -0.5001   -3.9096    1.4489 H         1 <0>         0.1452
     47 H20         1.9210   -4.1823    1.4402 H         1 <0>         0.1118
     48 H21         3.3423   -2.8610    2.9482 H         1 <0>         0.1107
     49 H22         2.3666   -1.2379    4.4801 H         1 <0>         0.1165
@<TRIPOS>BOND
     1    1    2 1
     2    1   28 1
     3    1   29 1
     4    1   30 1
     5    2    3 1
     6    2   31 1
     7    2   32 1
     8    3    8 1
     9    3    4 1
    10    3   33 1
    11    4    5 1
    12    4   34 1
    13    4   35 1
    14    5    6 1
    15    5   36 1
    16    5   37 1
    17    6   14 1
    18    6    7 1
    19    6    9 1
    20    7    8 1
    21    7   38 1
    22    7   39 1
    23    8   40 1
    24    8   41 1
    25    9   10 am
    26    9   42 1
    27   10   11 2
    28   10   12 1
    29   12   13 2
    30   12   26 1
    31   13   14 1
    32   13   25 1
    33   14   15 1
    34   15   20 ar
    35   15   16 ar
    36   16   17 ar
    37   16   43 1
    38   17   18 ar
    39   17   44 1
    40   18   19 ar
    41   18   45 1
    42   19   24 ar
    43   19   20 ar
    44   20   21 ar
    45   21   22 ar
    46   21   46 1
    47   22   23 ar
    48   22   47 1
    49   23   24 ar
    50   23   48 1
    51   24   49 1
    52   26   27 3
@<TRIPOS>MOLECULE
ZINC40475349
   44    48     0     0     0
SMALL
USER_CHARGES

@<TRIPOS>ATOM
      1 C1          6.9300   -1.3392    2.1587 C.3       1 <0>        -0.1123
      2 C2          5.8661   -2.3432    1.7967 C.ar      1 <0>        -0.0984
      3 C3          5.7269   -2.7584    0.4851 C.ar      1 <0>        -0.1012
      4 C4          4.7527   -3.6786    0.1503 C.ar      1 <0>        -0.1371
      5 C5          3.9133   -4.1870    1.1322 C.ar      1 <0>         0.1195
      6 C6          4.0558   -3.7686    2.4482 C.ar      1 <0>        -0.1341
      7 C7          5.0349   -2.8518    2.7778 C.ar      1 <0>        -0.1006
      8 N1          2.9232   -5.1208    0.7953 N.am      1 <0>        -0.5208
      9 C8          2.0689   -5.6517    1.7019 C.2       1 <0>         0.5499
     10 O1          2.1240   -5.5433    2.9081 O.2       1 <0>        -0.4254
     11 C9          1.0430   -6.3998    0.9100 C.3       1 <0>        -0.1100
     12 H1          0.3328   -5.6365    0.5922 H         1 <0>         0.1270
     13 C10         0.2264   -7.4397    1.5794 C.3       1 <0>         0.0842
     14 H2         -0.7319   -7.5059    1.0643 H         1 <0>         0.1021
     15 C11         0.8271   -8.7949    1.6201 C.2       1 <0>        -0.2868
     16 C12         1.9145   -9.2661    0.9511 C.2       1 <0>         0.1095
     17 N2          2.1859  -10.5566    1.1633 N.2       1 <0>        -0.5575
     18 C13         1.4689  -11.2927    1.9834 C.2       1 <0>         0.2828
     19 S1          1.6760  -12.9940    2.3924 S.3       1 <0>        -0.7208
     20 S2          0.3049  -10.2150    2.5487 S.3       1 <0>         0.0631
     21 S3          2.8776   -8.2029   -0.0911 S.3       1 <0>        -0.0143
     22 C14         1.7907   -6.7847   -0.3723 C.3       1 <0>        -0.1163
     23 H3          1.1361   -6.9141   -1.2342 H         1 <0>         0.1598
     24 C15         2.7308   -5.5679   -0.4618 C.2       1 <0>         0.5544
     25 O2          3.2104   -5.1010   -1.4725 O.2       1 <0>        -0.4449
     26 C16        -0.0313   -6.9983    2.9971 C.ar      1 <0>        -0.1078
     27 C17         0.8635   -7.3270    3.9971 C.ar      1 <0>        -0.0319
     28 C18         0.6274   -6.9227    5.2979 C.ar      1 <0>        -0.1275
     29 C19        -0.5043   -6.1882    5.6015 C.ar      1 <0>        -0.0991
     30 C20        -1.4017   -5.8567    4.6053 C.ar      1 <0>        -0.1546
     31 C21        -1.1643   -6.2567    3.2980 C.ar      1 <0>         0.1089
     32 O3         -2.0429   -5.9270    2.3151 O.3       1 <0>        -0.5003
     33 H4          7.8518   -1.8623    2.4130 H         1 <0>         0.0703
     34 H5          7.1094   -0.6782    1.3107 H         1 <0>         0.0656
     35 H6          6.5983   -0.7508    3.0142 H         1 <0>         0.0656
     36 H7          6.3802   -2.3625   -0.2783 H         1 <0>         0.1283
     37 H8          4.6440   -4.0019   -0.8744 H         1 <0>         0.1533
     38 H9          3.4039   -4.1622    3.2141 H         1 <0>         0.1555
     39 H10         5.1487   -2.5288    3.8020 H         1 <0>         0.1283
     40 H11         1.7481   -7.9005    3.7625 H         1 <0>         0.1205
     41 H12         1.3277   -7.1813    6.0783 H         1 <0>         0.1210
     42 H13        -0.6867   -5.8739    6.6185 H         1 <0>         0.1211
     43 H14        -2.2854   -5.2831    4.8429 H         1 <0>         0.1231
     44 H15        -2.7456   -6.5777    2.1811 H         1 <0>         0.3878
@<TRIPOS>BOND
     1    1    2 1
     2    1   33 1
     3    1   34 1
     4    1   35 1
     5    2    7 ar
     6    2    3 ar
     7    3    4 ar
     8    3   36 1
     9    4    5 ar
    10    4   37 1
    11    5    6 ar
    12    5    8 1
    13    6    7 ar
    14    6   38 1
    15    7   39 1
    16    8   24 am
    17    8    9 am
    18    9   10 2
    19    9   11 1
    20   11   12 1
    21   11   22 1
    22   11   13 1
    23   13   14 1
    24   13   15 1
    25   13   26 1
    26   15   20 1
    27   15   16 2
    28   16   17 1
    29   16   21 1
    30   17   18 2
    31   18   19 1
    32   18   20 1
    33   21   22 1
    34   22   23 1
    35   22   24 1
    36   24   25 2
    37   26   31 ar
    38   26   27 ar
    39   27   28 ar
    40   27   40 1
    41   28   29 ar
    42   28   41 1
    43   29   30 ar
    44   29   42 1
    45   30   31 ar
    46   30   43 1
    47   31   32 1
    48   32   44 1
@<TRIPOS>MOLECULE
ZINC04973645
   36    40     0     0     0
SMALL
USER_CHARGES

@<TRIPOS>ATOM
      1 C1         -0.0164    1.3549    0.0095 C.2       1 <0>        -0.1587
      2 C2          1.1758    2.0417    0.0018 C.2       1 <0>        -0.1152
      3 C3          2.3469    1.3291   -0.0132 C.2       1 <0>        -0.1094
      4 S1          1.7525   -0.3545   -0.0166 S.3       1 <0>         0.0753
      5 C4          0.0021   -0.0041    0.0020 C.2       1 <0>        -0.1727
      6 C5          3.7367    1.8245   -0.0242 C.ar      1 <0>         0.2452
      7 C6          4.7993    0.9168   -0.0450 C.ar      1 <0>        -0.1761
      8 C7          6.1048    1.3777   -0.0559 C.ar      1 <0>         0.0815
      9 C8          6.3393    2.7863   -0.0455 C.ar      1 <0>        -0.1294
     10 C9          7.6367    3.4779   -0.0536 C.2       1 <0>         0.2597
     11 C10         7.5877    4.8719   -0.0397 C.2       1 <0>        -0.4035
     12 C11         8.7551    5.6402   -0.0453 C.2       1 <0>         0.5936
     13 N1          9.9454    4.9954   -0.0646 N.am      1 <0>        -0.6568
     14 C12         9.9642    3.6339   -0.0778 C.2       1 <0>         0.6150
     15 O1         11.1587    3.0037   -0.0970 O.3       1 <0>        -0.6596
     16 N2          8.8779    2.9127   -0.0727 N.2       1 <0>        -0.5933
     17 O2          8.7030    6.8590   -0.0334 O.2       1 <0>        -0.5730
     18 S2          5.8588    5.2612   -0.0163 S.3       1 <0>         0.1439
     19 C13         5.1997    3.6115   -0.0246 C.ar      1 <0>         0.1250
     20 N3          3.9738    3.1333   -0.0199 N.ar      1 <0>        -0.4459
     21 C14         7.2398    0.4254   -0.0774 C.ar      1 <0>        -0.0785
     22 C15         8.2663    0.5815   -1.0083 C.ar      1 <0>         0.0123
     23 C16         9.3210   -0.3073   -1.0242 C.ar      1 <0>        -0.1455
     24 C17         9.3615   -1.3542   -0.1170 C.ar      1 <0>         0.1090
     25 C18         8.3435   -1.5136    0.8096 C.ar      1 <0>        -0.1702
     26 C19         7.2876   -0.6265    0.8369 C.ar      1 <0>        -0.0693
     27 F1         10.3965   -2.2222   -0.1364 F         1 <0>        -0.1447
     28 H1         -0.9550    1.8889    0.0258 H         1 <0>         0.1369
     29 H2          1.1888    3.1217    0.0071 H         1 <0>         0.1448
     30 H3         -0.8285   -0.6944    0.0065 H         1 <0>         0.1880
     31 H4          4.6018   -0.1450   -0.0522 H         1 <0>         0.1408
     32 H5          8.2354    1.3968   -1.7159 H         1 <0>         0.1305
     33 H6         10.1163   -0.1874   -1.7450 H         1 <0>         0.1334
     34 H7          8.3790   -2.3314    1.5142 H         1 <0>         0.1313
     35 H8          6.4971   -0.7488    1.5626 H         1 <0>         0.1282
     36 H9         10.7753    5.4976   -0.0692 H         1 <0>         0.4073
@<TRIPOS>BOND
     1    1    5 2
     2    1    2 1
     3    1   28 1
     4    2    3 2
     5    2   29 1
     6    3    4 1
     7    3    6 1
     8    4    5 1
     9    5   30 1
    10    6   20 ar
    11    6    7 ar
    12    7    8 ar
    13    7   31 1
    14    8    9 ar
    15    8   21 1
    16    9   19 ar
    17    9   10 1
    18   10   16 1
    19   10   11 2
    20   11   12 1
    21   11   18 1
    22   12   13 am
    23   12   17 2
    24   13   14 1
    25   13   36 1
    26   14   15 1
    27   14   16 2
    28   18   19 1
    29   19   20 ar
    30   21   26 ar
    31   21   22 ar
    32   22   23 ar
    33   22   32 1
    34   23   24 ar
    35   23   33 1
    36   24   25 ar
    37   24   27 1
    38   25   26 ar
    39   25   34 1
    40   26   35 1
@<TRIPOS>MOLECULE
ZINC13037788
   55    59     0     0     0
SMALL
USER_CHARGES
N-(1-adamantylmethyl)-2-[[4-amino-5-(2,4-dichlorophenyl)-1,2,4-triazol-3-yl]sulfanyl]acetamide
@<TRIPOS>ATOM
      1 C1          0.0290    1.2963    4.1815 C.ar      1 <0>        -0.1092
      2 C2          0.0248    0.9209    2.8539 C.ar      1 <0>        -0.0712
      3 C3          0.0329   -0.4325    2.5142 C.ar      1 <0>        -0.0106
      4 C4          0.0555   -1.3997    3.5222 C.ar      1 <0>         0.0072
      5 C5          0.0643   -1.0112    4.8467 C.ar      1 <0>        -0.1068
      6 C6          0.0513    0.3337    5.1765 C.ar      1 <0>        -0.0098
      7 Cl1         0.0626    0.8147    6.8445 Cl        1 <0>        -0.0491
      8 Cl2         0.0729   -3.0859    3.1099 Cl        1 <0>        -0.0146
      9 C7          0.0238   -0.8412    1.0936 C.2       1 <0>         0.2486
     10 N1          0.0354   -2.0714    0.6355 N.2       1 <0>        -0.2371
     11 N2          0.0226   -2.0612   -0.6495 N.2       1 <0>        -0.2770
     12 C8         -0.0031   -0.8236   -1.0908 C.2       1 <0>         0.1131
     13 N3          0.0021   -0.0041    0.0020 N.pl3     1 <0>        -0.3004
     14 N4         -0.0164    1.3618    0.0095 N.3       1 <0>        -0.5835
     15 S1         -0.0346   -0.3160   -2.7778 S.3       1 <0>         0.0794
     16 C9         -0.0252   -1.9322   -3.5926 C.3       1 <0>        -0.1436
     17 C10        -0.0496   -1.7414   -5.0872 C.2       1 <0>         0.5330
     18 O1         -0.0712   -0.6228   -5.5555 O.2       1 <0>        -0.5245
     19 N5         -0.0475   -2.8138   -5.9036 N.am      1 <0>        -0.7173
     20 C11        -0.0712   -2.6283   -7.3566 C.3       1 <0>         0.1295
     21 C12        -0.0633   -3.9945   -8.0454 C.3       1 <0>        -0.0649
     22 C13         1.2021   -4.7580   -7.6493 C.3       1 <0>        -0.1028
     23 C14         1.2100   -6.1241   -8.3380 C.3       1 <0>        -0.0861
     24 C15         1.1852   -5.9304   -9.8555 C.3       1 <0>        -0.1095
     25 C16        -0.0802   -5.1669  -10.2516 C.3       1 <0>        -0.0849
     26 C17        -0.0881   -3.8007   -9.5629 C.3       1 <0>        -0.0999
     27 C18        -1.3128   -5.9634   -9.8189 C.3       1 <0>        -0.1095
     28 C19        -1.2880   -6.1571   -8.3014 C.3       1 <0>        -0.0861
     29 C20        -0.0227   -6.9206   -7.9054 C.3       1 <0>        -0.1097
     30 C21        -1.2959   -4.7909   -7.6127 C.3       1 <0>        -0.1029
     31 H1          0.0186    2.3435    4.4452 H         1 <0>         0.1474
     32 H2          0.0119    1.6731    2.0791 H         1 <0>         0.1638
     33 H3          0.0818   -1.7574    5.6272 H         1 <0>         0.1523
     34 H4          0.9205    1.7362    0.0026 H         1 <0>         0.3707
     35 H5         -0.5549    1.7204   -0.7648 H         1 <0>         0.3812
     36 H6          0.8763   -2.4761   -3.3104 H         1 <0>         0.1300
     37 H7         -0.9034   -2.4996   -3.2843 H         1 <0>         0.1303
     38 H8         -0.0302   -3.7084   -5.5291 H         1 <0>         0.4045
     39 H9         -0.9727   -2.0844   -7.6388 H         1 <0>         0.0726
     40 H10         0.8070   -2.0609   -7.6649 H         1 <0>         0.0725
     41 H11         2.0802   -4.1906   -7.9576 H         1 <0>         0.0658
     42 H12         1.2197   -4.8960   -6.5682 H         1 <0>         0.0608
     43 H13         2.1114   -6.6681   -8.0559 H         1 <0>         0.0709
     44 H14         1.1908   -6.9037  -10.3462 H         1 <0>         0.0627
     45 H15         2.0633   -5.3630  -10.1638 H         1 <0>         0.0622
     46 H16        -0.0978   -5.0289  -11.3327 H         1 <0>         0.0721
     47 H17        -0.9895   -3.2568   -9.8450 H         1 <0>         0.0665
     48 H18         0.7901   -3.2334   -9.8711 H         1 <0>         0.0664
     49 H19        -2.2143   -5.4194  -10.1011 H         1 <0>         0.0623
     50 H20        -1.3072   -6.9367  -10.3096 H         1 <0>         0.0627
     51 H21        -2.1662   -6.7245   -7.9932 H         1 <0>         0.0710
     52 H22        -0.0170   -7.8939   -8.3960 H         1 <0>         0.0630
     53 H23        -0.0050   -7.0586   -6.8243 H         1 <0>         0.0616
     54 H24        -1.2783   -4.9289   -6.5316 H         1 <0>         0.0608
     55 H25        -2.1974   -4.2470   -7.8948 H         1 <0>         0.0659
@<TRIPOS>BOND
     1    1    6 ar
     2    1    2 ar
     3    1   31 1
     4    2    3 ar
     5    2   32 1
     6    3    4 ar
     7    3    9 1
     8    4    5 ar
     9    4    8 1
    10    5    6 ar
    11    5   33 1
    12    6    7 1
    13    9   13 1
    14    9   10 2
    15   10   11 1
    16   11   12 2
    17   12   13 1
    18   12   15 1
    19   13   14 1
    20   14   34 1
    21   14   35 1
    22   15   16 1
    23   16   17 1
    24   16   36 1
    25   16   37 1
    26   17   18 2
    27   17   19 am
    28   19   20 1
    29   19   38 1
    30   20   21 1
    31   20   39 1
    32   20   40 1
    33   21   26 1
    34   21   30 1
    35   21   22 1
    36   22   23 1
    37   22   41 1
    38   22   42 1
    39   23   29 1
    40   23   24 1
    41   23   43 1
    42   24   25 1
    43   24   44 1
    44   24   45 1
    45   25   26 1
    46   25   27 1
    47   25   46 1
    48   26   47 1
    49   26   48 1
    50   27   28 1
    51   27   49 1
    52   27   50 1
    53   28   29 1
    54   28   30 1
    55   28   51 1
    56   29   52 1
    57   29   53 1
    58   30   54 1
    59   30   55 1
@<TRIPOS>MOLECULE
ZINC27754526
   48    51     0     0     0
SMALL
USER_CHARGES
(4S,5S,6S)-6-[5-(2-chlorophenyl)-2-furyl]-4-(4-fluorophenyl)-4-hydroxy-5-(2,2,2-trifluoroacetyl)hexahydropyrimidin-2-one
@<TRIPOS>ATOM
      1 C1         -3.2561    2.9218   -1.0874 C.ar      1 <0>        -0.1127
      2 C2         -3.2866    4.0305   -0.2598 C.ar      1 <0>        -0.0923
      3 C3         -2.2150    4.3136    0.5676 C.ar      1 <0>        -0.1091
      4 C4         -1.1090    3.4866    0.5771 C.ar      1 <0>        -0.0118
      5 C5         -1.0701    2.3690   -0.2598 C.ar      1 <0>        -0.0190
      6 C6         -2.1555    2.0904   -1.0923 C.ar      1 <0>        -0.0806
      7 C7          0.1121    1.4823   -0.2596 C.2       1 <0>         0.0396
      8 C8          1.4064    1.8782   -0.3877 C.2       1 <0>        -0.1722
      9 C9          2.1947    0.7109   -0.3397 C.2       1 <0>        -0.1596
     10 C10         1.3515   -0.3286   -0.1863 C.2       1 <0>        -0.0578
     11 O1          0.0940    0.1411   -0.1383 O.3       1 <0>        -0.1574
     12 C11         1.7525   -1.7778   -0.0858 C.3       1 <0>         0.2570
     13 H1          2.8125   -1.8484    0.1995 H         1 <0>         0.1351
     14 C12         1.4873   -2.4765   -1.4236 C.3       1 <0>        -0.1291
     15 H2          2.1120   -2.0392   -2.2164 H         1 <0>         0.1419
     16 C13         1.7923   -3.9695   -1.2633 C.3       1 <0>         0.4275
     17 N1          1.0042   -4.5043   -0.1518 N.am      1 <0>        -0.7529
     18 C14         0.6433   -3.7311    0.8832 C.2       1 <0>         0.7307
     19 O2         -0.0023   -4.2277    1.7858 O.2       1 <0>        -0.5847
     20 N2          0.9662   -2.4315    0.9616 N.am      1 <0>        -0.7440
     21 C15         1.4307   -4.6967   -2.5328 C.ar      1 <0>        -0.1650
     22 C16         2.3723   -4.8494   -3.5334 C.ar      1 <0>        -0.0536
     23 C17         2.0435   -5.5210   -4.6957 C.ar      1 <0>        -0.1510
     24 C18         0.7673   -6.0314   -4.8622 C.ar      1 <0>         0.1203
     25 C19        -0.1766   -5.8729   -3.8617 C.ar      1 <0>        -0.1491
     26 C20         0.1560   -5.2055   -2.6982 C.ar      1 <0>        -0.0789
     27 F1          0.4431   -6.6833   -6.0003 F         1 <0>        -0.1326
     28 O3          3.1838   -4.1471   -0.9911 O.3       1 <0>        -0.5795
     29 C21         0.0427   -2.2943   -1.8121 C.2       1 <0>         0.3329
     30 O4         -0.8333   -2.7042   -1.0890 O.2       1 <0>        -0.3362
     31 C22        -0.3087   -1.6007   -3.1030 C.3       1 <0>         0.4213
     32 F2         -1.6976   -1.4596   -3.1935 F         1 <0>        -0.1595
     33 F3          0.2913   -0.3372   -3.1318 F         1 <0>        -0.1597
     34 F4          0.1540   -2.3614   -4.1821 F         1 <0>        -0.1593
     35 Cl1         0.2321    3.8388    1.6217 Cl        1 <0>        -0.0527
     36 H3         -4.0964    2.7067   -1.7309 H         1 <0>         0.1368
     37 H4         -4.1511    4.6779   -0.2602 H         1 <0>         0.1389
     38 H5         -2.2449    5.1809    1.2105 H         1 <0>         0.1420
     39 H6         -2.1333    1.2258   -1.7391 H         1 <0>         0.1320
     40 H7          1.7618    2.8915   -0.5039 H         1 <0>         0.1562
     41 H8          3.2710    0.6595   -0.4119 H         1 <0>         0.1599
     42 H9          0.6958   -5.5602   -0.1542 H         1 <0>         0.4417
     43 H10         0.6276   -1.8556    1.8355 H         1 <0>         0.4483
     44 H11         3.3664   -4.4473   -3.4051 H         1 <0>         0.1470
     45 H12         2.7807   -5.6443   -5.4753 H         1 <0>         0.1438
     46 H13        -1.1725   -6.2704   -3.9907 H         1 <0>         0.1419
     47 H14        -0.5801   -5.0817   -1.9176 H         1 <0>         0.1377
     48 H15         3.5909   -5.1585   -0.8451 H         1 <0>         0.4274
@<TRIPOS>BOND
     1    1    6 ar
     2    1    2 ar
     3    1   36 1
     4    2    3 ar
     5    2   37 1
     6    3    4 ar
     7    3   38 1
     8    4    5 ar
     9    4   35 1
    10    5    6 ar
    11    5    7 1
    12    6   39 1
    13    7   11 1
    14    7    8 2
    15    8    9 1
    16    8   40 1
    17    9   10 2
    18    9   41 1
    19   10   11 1
    20   10   12 1
    21   12   13 1
    22   12   20 1
    23   12   14 1
    24   14   15 1
    25   14   16 1
    26   14   29 1
    27   16   17 1
    28   16   21 1
    29   16   28 1
    30   17   18 am
    31   17   42 1
    32   18   19 2
    33   18   20 am
    34   20   43 1
    35   21   26 ar
    36   21   22 ar
    37   22   23 ar
    38   22   44 1
    39   23   24 ar
    40   23   45 1
    41   24   25 ar
    42   24   27 1
    43   25   26 ar
    44   25   46 1
    45   26   47 1
    46   28   48 1
    47   29   30 2
    48   29   31 1
    49   31   32 1
    50   31   33 1
    51   31   34 1
@<TRIPOS>MOLECULE
ZINC35723031
   73    77     0     0     0
SMALL
USER_CHARGES

@<TRIPOS>ATOM
      1 C1          1.1094    0.2819    0.1005 C.3       1 <0>        -0.1101
      2 C2         -0.3172   -0.2013    0.0506 C.ar      1 <0>        -0.0974
      3 C3         -0.8410   -0.6888   -1.1307 C.ar      1 <0>        -0.1133
      4 C4         -2.1499   -1.1323   -1.1774 C.ar      1 <0>        -0.1174
      5 C5         -2.9383   -1.0897   -0.0421 C.ar      1 <0>        -0.1127
      6 C6         -2.4203   -0.6037    1.1424 C.ar      1 <0>        -0.0688
      7 C7         -1.1047   -0.1620    1.1937 C.ar      1 <0>         0.1507
      8 N1         -0.5754    0.3264    2.3934 N.am      1 <0>        -0.6804
      9 C8         -0.7647   -0.3554    3.5405 C.2       1 <0>         0.7020
     10 O1         -1.3406   -1.4262    3.5234 O.2       1 <0>        -0.5479
     11 N2         -0.3156    0.1497    4.7066 N.am      1 <0>        -0.6848
     12 C9         -0.5981   -0.5097    5.9112 C.ar      1 <0>         0.1527
     13 C10        -0.6382   -1.9001    5.9480 C.ar      1 <0>        -0.0830
     14 C11        -0.9147   -2.5585    7.1278 C.ar      1 <0>        -0.1134
     15 C12        -1.1560   -1.8361    8.2898 C.ar      1 <0>         0.2272
     16 C13        -1.1170   -0.4340    8.2596 C.ar      1 <0>        -0.1314
     17 C14        -0.8304    0.2239    7.0607 C.ar      1 <0>        -0.1095
     18 C15        -1.3717    0.3410    9.4878 C.2       1 <0>         0.5599
     19 O2         -1.6164   -0.2350   10.5304 O.2       1 <0>        -0.5093
     20 N3         -1.3334    1.6878    9.4548 N.am      1 <0>        -0.7334
     21 C16        -1.5865    2.4579   10.6751 C.3       1 <0>         0.1285
     22 C17        -1.4834    3.9527   10.3654 C.3       1 <0>        -0.0913
     23 C18        -1.7438    4.7449   11.6207 C.ar      1 <0>        -0.0845
     24 C19        -3.0324    5.1302   11.9400 C.ar      1 <0>        -0.1137
     25 C20        -3.2712    5.8569   13.0914 C.ar      1 <0>        -0.1178
     26 C21        -2.2215    6.1978   13.9238 C.ar      1 <0>        -0.1203
     27 C22        -0.9331    5.8116   13.6050 C.ar      1 <0>        -0.1179
     28 C23        -0.6948    5.0813   12.4557 C.ar      1 <0>        -0.1137
     29 N4         -1.4356   -2.5008    9.4790 N.pl3     1 <0>        -0.6622
     30 C24        -2.8164   -2.8435    9.8582 C.3       1 <0>         0.1561
     31 C25        -2.9283   -4.3668    9.8976 C.3       1 <0>        -0.1010
     32 C26        -1.7797   -4.9691   10.6631 C.ar      1 <0>        -0.0646
     33 C27        -1.9396   -6.2585   11.1563 C.ar      1 <0>        -0.1225
     34 C28        -0.9234   -6.8725   11.8577 C.ar      1 <0>        -0.1225
     35 C29         0.2667   -6.2021   12.0724 C.ar      1 <0>        -0.1223
     36 C30         0.4270   -4.9208   11.5869 C.ar      1 <0>        -0.1183
     37 C31        -0.5976   -4.2995   10.8858 C.ar      1 <0>        -0.0896
     38 C32        -0.3663   -2.8939   10.4029 C.3       1 <0>         0.1926
     39 C33        -3.2803   -0.5576    2.3791 C.3       1 <0>        -0.1015
     40 H1          1.7655   -0.5490    0.3601 H         1 <0>         0.0719
     41 H2          1.3932    0.6780   -0.8745 H         1 <0>         0.0708
     42 H3          1.2014    1.0660    0.8521 H         1 <0>         0.0592
     43 H4         -0.2277   -0.7234   -2.0190 H         1 <0>         0.1262
     44 H5         -2.5574   -1.5124   -2.1025 H         1 <0>         0.1249
     45 H6         -3.9604   -1.4365   -0.0819 H         1 <0>         0.1256
     46 H7         -0.0723    1.1557    2.3995 H         1 <0>         0.4053
     47 H8          0.2031    0.9693    4.7124 H         1 <0>         0.4077
     48 H9         -0.4522   -2.4667    5.0476 H         1 <0>         0.1461
     49 H10        -0.9441   -3.6379    7.1484 H         1 <0>         0.1331
     50 H11        -0.7942    1.3029    7.0307 H         1 <0>         0.1268
     51 H12        -1.1383    2.1472    8.6231 H         1 <0>         0.3964
     52 H13        -2.5861    2.2319   11.0466 H         1 <0>         0.0698
     53 H14        -0.8488    2.1919   11.4321 H         1 <0>         0.0699
     54 H15        -0.4839    4.1787    9.9939 H         1 <0>         0.0791
     55 H16        -2.2212    4.2186    9.6084 H         1 <0>         0.0791
     56 H17        -3.8525    4.8639   11.2897 H         1 <0>         0.1219
     57 H18        -4.2779    6.1585   13.3405 H         1 <0>         0.1230
     58 H19        -2.4080    6.7661   14.8230 H         1 <0>         0.1223
     59 H20        -0.1129    6.0783   14.2551 H         1 <0>         0.1229
     60 H21         0.3114    4.7764   12.2085 H         1 <0>         0.1219
     61 H22        -3.0417   -2.4316   10.8419 H         1 <0>         0.0639
     62 H23        -3.5117   -2.4416    9.1212 H         1 <0>         0.0682
     63 H24        -3.8655   -4.6451   10.3796 H         1 <0>         0.0773
     64 H25        -2.9217   -4.7532    8.8784 H         1 <0>         0.0752
     65 H26        -2.8681   -6.7843   10.9890 H         1 <0>         0.1186
     66 H27        -1.0566   -7.8745   12.2381 H         1 <0>         0.1197
     67 H28         1.0675   -6.6797   12.6174 H         1 <0>         0.1206
     68 H29         1.3565   -4.3968   11.7540 H         1 <0>         0.1198
     69 H30         0.5940   -2.8408    9.8899 H         1 <0>         0.0715
     70 H31        -0.3582   -2.2173   11.2574 H         1 <0>         0.0698
     71 H32        -3.2767   -1.5354    2.8607 H         1 <0>         0.0912
     72 H33        -2.8854    0.1885    3.0686 H         1 <0>         0.0518
     73 H34        -4.3007   -0.2927    2.1023 H         1 <0>         0.0554
@<TRIPOS>BOND
     1    1    2 1
     2    1   40 1
     3    1   41 1
     4    1   42 1
     5    2    7 ar
     6    2    3 ar
     7    3    4 ar
     8    3   43 1
     9    4    5 ar
    10    4   44 1
    11    5    6 ar
    12    5   45 1
    13    6    7 ar
    14    6   39 1
    15    7    8 1
    16    8    9 am
    17    8   46 1
    18    9   10 2
    19    9   11 am
    20   11   12 1
    21   11   47 1
    22   12   17 ar
    23   12   13 ar
    24   13   14 ar
    25   13   48 1
    26   14   15 ar
    27   14   49 1
    28   15   16 ar
    29   15   29 1
    30   16   17 ar
    31   16   18 1
    32   17   50 1
    33   18   19 2
    34   18   20 am
    35   20   21 1
    36   20   51 1
    37   21   22 1
    38   21   52 1
    39   21   53 1
    40   22   23 1
    41   22   54 1
    42   22   55 1
    43   23   28 ar
    44   23   24 ar
    45   24   25 ar
    46   24   56 1
    47   25   26 ar
    48   25   57 1
    49   26   27 ar
    50   26   58 1
    51   27   28 ar
    52   27   59 1
    53   28   60 1
    54   29   38 1
    55   29   30 1
    56   30   31 1
    57   30   61 1
    58   30   62 1
    59   31   32 1
    60   31   63 1
    61   31   64 1
    62   32   37 ar
    63   32   33 ar
    64   33   34 ar
    65   33   65 1
    66   34   35 ar
    67   34   66 1
    68   35   36 ar
    69   35   67 1
    70   36   37 ar
    71   36   68 1
    72   37   38 1
    73   38   69 1
    74   38   70 1
    75   39   71 1
    76   39   72 1
    77   39   73 1
@<TRIPOS>MOLECULE
ZINC45561801
   54    58     0     0     0
SMALL
USER_CHARGES

@<TRIPOS>ATOM
      1 C1          0.5589    1.2833   -0.6935 C.3       1 <0>        -0.1484
      2 C2          0.4397   -0.2351   -0.5489 C.3       1 <0>        -0.0864
      3 H1          0.8796   -0.7211   -1.4198 H         1 <0>         0.0777
      4 C3         -1.0366   -0.6260   -0.4334 C.3       1 <0>        -0.1151
      5 C4         -1.1803   -2.1443   -0.5375 C.3       1 <0>        -0.0720
      6 C5         -0.2487   -2.8004    0.4784 C.2       1 <0>        -0.0804
      7 C6          0.7839   -2.1089    1.0101 C.2       1 <0>        -0.1507
      8 S1          1.5835   -3.2413    2.1194 S.3       1 <0>         0.1297
      9 C7          0.5352   -4.6379    1.8718 C.ar      1 <0>         0.1431
     10 C8         -0.4125   -4.1750    0.9245 C.ar      1 <0>        -0.2463
     11 C9         -1.4179   -5.0970    0.5126 C.ar      1 <0>         0.5091
     12 N1         -1.3611   -6.3062    1.0654 N.ar      1 <0>        -0.6039
     13 C10        -0.4437   -6.6726    1.9480 C.ar      1 <0>         0.3511
     14 N2          0.5233   -5.8566    2.3741 N.ar      1 <0>        -0.4719
     15 S2         -0.5027   -8.3126    2.5896 S.3       1 <0>         0.0562
     16 C11        -1.9361   -9.0560    1.7630 C.3       1 <0>        -0.0262
     17 C12        -2.1021  -10.4795    2.2288 C.2       1 <0>         0.0068
     18 N3         -2.8035  -10.9438    3.2437 N.2       1 <0>        -0.2750
     19 N4         -2.8509  -12.1766    3.5175 N.2       1 <0>        -0.2075
     20 C13        -2.1704  -13.0277    2.7549 C.2       1 <0>        -0.0396
     21 S3         -1.4448  -11.8907    1.5821 S.3       1 <0>         0.2386
     22 C14        -2.0517  -14.4931    2.8480 C.2       1 <0>         0.6163
     23 O1         -1.3708  -15.1003    2.0440 O.2       1 <0>        -0.5119
     24 N5         -2.6978  -15.1608    3.8244 N.am      1 <0>        -0.6974
     25 C15        -2.5798  -16.6181    3.9170 C.3       1 <0>         0.1622
     26 C16        -3.3919  -17.1146    5.0853 C.ar      1 <0>        -0.1165
     27 C17        -2.8131  -17.2144    6.3367 C.ar      1 <0>        -0.0973
     28 C18        -3.5579  -17.6699    7.4084 C.ar      1 <0>        -0.1213
     29 C19        -4.8818  -18.0250    7.2289 C.ar      1 <0>        -0.1076
     30 C20        -5.4608  -17.9243    5.9777 C.ar      1 <0>        -0.1216
     31 C21        -4.7171  -17.4648    4.9069 C.ar      1 <0>        -0.0977
     32 N6         -2.3940   -4.7557   -0.4058 N.pl3     1 <0>        -0.8253
     33 C22         1.1729   -0.6909    0.7205 C.3       1 <0>        -0.0363
     34 H2          1.6106    1.5596   -0.7697 H         1 <0>         0.0594
     35 H3          0.0327    1.6052   -1.5922 H         1 <0>         0.0599
     36 H4          0.1184    1.7670    0.1783 H         1 <0>         0.0582
     37 H5         -1.4261   -0.2903    0.5277 H         1 <0>         0.0699
     38 H6         -1.6007   -0.1527   -1.2371 H         1 <0>         0.0747
     39 H7         -2.2108   -2.4289   -0.3246 H         1 <0>         0.0791
     40 H8         -0.9106   -2.4684   -1.5426 H         1 <0>         0.0815
     41 H9         -2.8326   -8.4866    2.0082 H         1 <0>         0.1372
     42 H10        -1.7808   -9.0424    0.6842 H         1 <0>         0.1294
     43 H11        -3.2409  -14.6765    4.4657 H         1 <0>         0.4145
     44 H12        -2.9506  -17.0718    2.9978 H         1 <0>         0.0856
     45 H13        -1.5339  -16.8896    4.0599 H         1 <0>         0.0859
     46 H14        -1.7788  -16.9369    6.4770 H         1 <0>         0.1255
     47 H15        -3.1055  -17.7485    8.3859 H         1 <0>         0.1259
     48 H16        -5.4635  -18.3815    8.0660 H         1 <0>         0.1248
     49 H17        -6.4950  -18.2022    5.8374 H         1 <0>         0.1256
     50 H18        -5.1706  -17.3826    3.9301 H         1 <0>         0.1251
     51 H19        -2.2775   -3.9752   -0.9699 H         1 <0>         0.4172
     52 H20        -3.1950   -5.2968   -0.4859 H         1 <0>         0.4111
     53 H21         2.2497   -0.6283    0.5638 H         1 <0>         0.0866
     54 H22         0.8843   -0.0558    1.5580 H         1 <0>         0.0884
@<TRIPOS>BOND
     1    1    2 1
     2    1   34 1
     3    1   35 1
     4    1   36 1
     5    2    3 1
     6    2   33 1
     7    2    4 1
     8    4    5 1
     9    4   37 1
    10    4   38 1
    11    5    6 1
    12    5   39 1
    13    5   40 1
    14    6   10 1
    15    6    7 2
    16    7    8 1
    17    7   33 1
    18    8    9 1
    19    9   14 ar
    20    9   10 ar
    21   10   11 ar
    22   11   12 ar
    23   11   32 1
    24   12   13 ar
    25   13   14 ar
    26   13   15 1
    27   15   16 1
    28   16   17 1
    29   16   41 1
    30   16   42 1
    31   17   21 1
    32   17   18 2
    33   18   19 1
    34   19   20 2
    35   20   21 1
    36   20   22 1
    37   22   23 2
    38   22   24 am
    39   24   25 1
    40   24   43 1
    41   25   26 1
    42   25   44 1
    43   25   45 1
    44   26   31 ar
    45   26   27 ar
    46   27   28 ar
    47   27   46 1
    48   28   29 ar
    49   28   47 1
    50   29   30 ar
    51   29   48 1
    52   30   31 ar
    53   30   49 1
    54   31   50 1
    55   32   51 1
    56   32   52 1
    57   33   53 1
    58   33   54 1
@<TRIPOS>MOLECULE
ZINC63637862
   64    68     0     0     0
SMALL
USER_CHARGES

@<TRIPOS>ATOM
      1 C1         -0.0187    1.5258    0.0104 C.3       1 <0>        -0.1466
      2 C2          0.0021   -0.0041    0.0020 C.3       1 <0>        -0.0199
      3 C3          0.7421   -0.5109    1.2415 C.3       1 <0>        -0.1410
      4 C4         -1.4333   -0.5336    0.0129 C.3       1 <0>        -0.1413
      5 C5          0.7074   -0.4901   -1.2379 C.ar      1 <0>        -0.0839
      6 C6          1.2167    0.4191   -2.1447 C.ar      1 <0>        -0.0754
      7 C7          1.8639   -0.0262   -3.2825 C.ar      1 <0>        -0.0711
      8 C8          2.0032   -1.3819   -3.5157 C.ar      1 <0>        -0.1001
      9 C9          1.4957   -2.2951   -2.6119 C.ar      1 <0>        -0.0880
     10 C10         0.8509   -1.8508   -1.4667 C.ar      1 <0>         0.1228
     11 O1          0.3561   -2.7472   -0.5730 O.3       1 <0>        -0.4859
     12 C11         1.6478   -3.7726   -2.8667 C.3       1 <0>        -0.0198
     13 C12         2.3955   -3.9886   -4.1840 C.3       1 <0>        -0.1447
     14 C13         2.4380   -4.4089   -1.7215 C.3       1 <0>        -0.1410
     15 C14         0.2644   -4.4202   -2.9534 C.3       1 <0>        -0.1415
     16 C15         2.4181    0.9679   -4.2704 C.3       1 <0>         0.0566
     17 H1          2.2157    1.9811   -3.9233 H         1 <0>         0.1012
     18 C16         1.7633    0.7518   -5.6426 C.3       1 <0>        -0.1228
     19 H2          1.7108   -0.3162   -5.8539 H         1 <0>         0.1624
     20 C17         2.6011    1.4298   -6.6973 C.2       1 <0>         0.4879
     21 N1          2.1223    2.3520   -7.4769 N.2       1 <0>        -0.5628
     22 C18         0.8543    2.7778   -7.3977 C.2       1 <0>         0.6835
     23 O2          0.4682    3.6378   -8.1669 O.2       1 <0>        -0.4724
     24 N2         -0.0007    2.2788   -6.4911 N.am      1 <0>        -0.6858
     25 C19         0.3762    1.3264   -5.6339 C.2       1 <0>         0.5248
     26 O3         -0.4309    0.9133   -4.8291 O.2       1 <0>        -0.4600
     27 N3          3.9168    1.0452   -6.8122 N.pl3     1 <0>        -0.6151
     28 C20         4.5698    0.8091   -5.6120 C.2       1 <0>         0.2538
     29 C21         3.9092    0.7674   -4.4106 C.2       1 <0>        -0.2836
     30 C22         4.8319    0.5103   -3.3663 C.2       1 <0>         0.4499
     31 O4          4.5686    0.4048   -2.1841 O.2       1 <0>        -0.4044
     32 C23         6.1736    0.3934   -3.9772 C.ar      1 <0>        -0.1539
     33 C24         5.9995    0.5741   -5.3817 C.ar      1 <0>        -0.0704
     34 C25         7.0793    0.5199   -6.2483 C.ar      1 <0>        -0.0705
     35 C26         8.3338    0.2719   -5.6828 C.ar      1 <0>        -0.0993
     36 C27         8.4985    0.0883   -4.3307 C.ar      1 <0>        -0.1053
     37 C28         7.4184    0.1535   -3.4289 C.ar      1 <0>        -0.0396
     38 H3          1.0039    1.9031    0.0027 H         1 <0>         0.0584
     39 H4         -0.5459    1.8868   -0.8726 H         1 <0>         0.0573
     40 H5         -0.5289    1.8773    0.9072 H         1 <0>         0.0584
     41 H6          0.2319   -0.1594    2.1383 H         1 <0>         0.0526
     42 H7          0.7568   -1.6008    1.2356 H         1 <0>         0.0742
     43 H8          1.7647   -0.1336    1.2338 H         1 <0>         0.0521
     44 H9         -1.9605   -0.1726   -0.8702 H         1 <0>         0.0549
     45 H10        -1.4185   -1.6235    0.0069 H         1 <0>         0.0573
     46 H11        -1.9435   -0.1821    0.9097 H         1 <0>         0.0592
     47 H12         1.1089    1.4786   -1.9650 H         1 <0>         0.1246
     48 H13         2.5089   -1.7272   -4.4054 H         1 <0>         0.1221
     49 H14        -0.5564   -3.0147   -0.7485 H         1 <0>         0.3804
     50 H15         3.3811   -3.5272   -4.1222 H         1 <0>         0.0568
     51 H16         2.5055   -5.0573   -4.3683 H         1 <0>         0.0591
     52 H17         1.8326   -3.5353   -4.9999 H         1 <0>         0.0547
     53 H18         1.9053   -4.2550   -0.7830 H         1 <0>         0.0756
     54 H19         2.5480   -5.4776   -1.9057 H         1 <0>         0.0527
     55 H20         3.4236   -3.9475   -1.6597 H         1 <0>         0.0507
     56 H21        -0.2985   -3.9669   -3.7693 H         1 <0>         0.0537
     57 H22         0.3744   -5.4889   -3.1377 H         1 <0>         0.0594
     58 H23        -0.2683   -4.2663   -2.0150 H         1 <0>         0.0583
     59 H24        -0.9082    2.6197   -6.4567 H         1 <0>         0.4286
     60 H25         4.3563    0.9464   -7.6712 H         1 <0>         0.4391
     61 H26         6.9576    0.6624   -7.3119 H         1 <0>         0.1424
     62 H27         9.1988    0.2228   -6.3276 H         1 <0>         0.1363
     63 H28         9.4887   -0.1005   -3.9431 H         1 <0>         0.1357
     64 H29         7.5501    0.0108   -2.3665 H         1 <0>         0.1490
@<TRIPOS>BOND
     1    1    2 1
     2    1   38 1
     3    1   39 1
     4    1   40 1
     5    2    3 1
     6    2    4 1
     7    2    5 1
     8    3   41 1
     9    3   42 1
    10    3   43 1
    11    4   44 1
    12    4   45 1
    13    4   46 1
    14    5   10 ar
    15    5    6 ar
    16    6    7 ar
    17    6   47 1
    18    7    8 ar
    19    7   16 1
    20    8    9 ar
    21    8   48 1
    22    9   10 ar
    23    9   12 1
    24   10   11 1
    25   11   49 1
    26   12   13 1
    27   12   14 1
    28   12   15 1
    29   13   50 1
    30   13   51 1
    31   13   52 1
    32   14   53 1
    33   14   54 1
    34   14   55 1
    35   15   56 1
    36   15   57 1
    37   15   58 1
    38   16   17 1
    39   16   29 1
    40   16   18 1
    41   18   19 1
    42   18   25 1
    43   18   20 1
    44   20   21 2
    45   20   27 1
    46   21   22 1
    47   22   23 2
    48   22   24 am
    49   24   25 am
    50   24   59 1
    51   25   26 2
    52   27   28 1
    53   27   60 1
    54   28   33 1
    55   28   29 2
    56   29   30 1
    57   30   31 2
    58   30   32 1
    59   32   37 ar
    60   32   33 ar
    61   33   34 ar
    62   34   35 ar
    63   34   61 1
    64   35   36 ar
    65   35   62 1
    66   36   37 ar
    67   36   63 1
    68   37   64 1
@<TRIPOS>MOLECULE
ZINC13195028
   50    53     0     0     0
SMALL
USER_CHARGES
3-[(3-allyl-5-methyl-4-oxo-6-phenyl-thieno[2,3-d]pyrimidin-2-yl)sulfanylmethyl]benzoic acid
@<TRIPOS>ATOM
      1 C1          0.9758    6.7432   -0.1081 C.3       1 <0>        -0.1045
      2 C2         -0.2410    5.8582   -0.0227 C.2       1 <0>        -0.0277
      3 C3         -0.0959    4.4601   -0.0203 C.2       1 <0>        -0.2628
      4 C4         -1.2954    3.7220    0.0623 C.2       1 <0>         0.1304
      5 N1         -1.3092    2.3966    0.0691 N.2       1 <0>        -0.5031
      6 C5         -0.1871    1.7073    0.0094 C.2       1 <0>         0.3776
      7 N2          1.0195    2.3397   -0.0727 N.am      1 <0>        -0.5092
      8 C6          1.1056    3.6821   -0.0898 C.2       1 <0>         0.5648
      9 O1          2.1920    4.2299   -0.1631 O.2       1 <0>        -0.5175
     10 C7          2.2454    1.5407   -0.1431 C.3       1 <0>         0.1155
     11 C8          2.5760    1.2540   -1.5851 C.2       1 <0>        -0.1866
     12 C9          3.7522    1.5757   -2.0639 C.2       1 <0>        -0.1479
     13 S1         -0.2463   -0.0536    0.0284 S.3       1 <0>         0.0379
     14 C10        -2.0347   -0.3068    0.1441 C.3       1 <0>        -0.0552
     15 C11        -2.3320   -1.7838    0.1757 C.ar      1 <0>        -0.1166
     16 C12        -2.3922   -2.4501    1.3872 C.ar      1 <0>        -0.1016
     17 C13        -2.6645   -3.8059    1.4254 C.ar      1 <0>        -0.1396
     18 C14        -2.8781   -4.5031    0.2541 C.ar      1 <0>        -0.0632
     19 C15        -2.8188   -3.8372   -0.9715 C.ar      1 <0>        -0.1132
     20 C16        -2.5490   -2.4674   -1.0024 C.ar      1 <0>        -0.0608
     21 C17        -3.0468   -4.5770   -2.2297 C.2       1 <0>         0.4883
     22 O2         -2.9946   -3.9950   -3.2945 O.co2     1 <0>        -0.6285
     23 S2         -2.5451    4.9813    0.1313 S.3       1 <0>         0.1558
     24 C18        -1.4782    6.4095    0.0515 C.2       1 <0>        -0.1531
     25 C19        -1.8506    7.8395    0.0628 C.ar      1 <0>         0.0036
     26 C20        -2.7609    8.3196    1.0061 C.ar      1 <0>        -0.1033
     27 C21        -3.0997    9.6568    1.0148 C.ar      1 <0>        -0.1173
     28 C22        -2.5483   10.5194    0.0841 C.ar      1 <0>        -0.1152
     29 C23        -1.6499   10.0491   -0.8573 C.ar      1 <0>        -0.1178
     30 C24        -1.2980    8.7154   -0.8735 C.ar      1 <0>        -0.0954
     31 H1          1.2618    6.8678   -1.1524 H         1 <0>         0.0714
     32 H2          0.7477    7.7172    0.3249 H         1 <0>         0.0656
     33 H3          1.7978    6.2847    0.4416 H         1 <0>         0.0823
     34 H4          3.0659    2.0932    0.3149 H         1 <0>         0.1112
     35 H5          2.0979    0.6013    0.3896 H         1 <0>         0.1083
     36 H6          1.8433    0.7834   -2.2239 H         1 <0>         0.1211
     37 H7          4.4850    2.0464   -1.4252 H         1 <0>         0.1018
     38 H8          3.9892    1.3702   -3.0974 H         1 <0>         0.1065
     39 H9         -2.4094    0.1589    1.0556 H         1 <0>         0.1088
     40 H10        -2.5221    0.1435   -0.7207 H         1 <0>         0.1110
     41 H11        -2.2262   -1.9091    2.3070 H         1 <0>         0.1183
     42 H12        -2.7104   -4.3197    2.3742 H         1 <0>         0.1209
     43 H13        -3.0909   -5.5615    0.2853 H         1 <0>         0.1334
     44 H14        -2.5061   -1.9453   -1.9468 H         1 <0>         0.1301
     45 H15        -3.1954    7.6464    1.7303 H         1 <0>         0.1255
     46 H16        -3.8004   10.0303    1.7469 H         1 <0>         0.1260
     47 H17        -2.8201   11.5646    0.0926 H         1 <0>         0.1235
     48 H18        -1.2228   10.7278   -1.5807 H         1 <0>         0.1262
     49 H19        -0.5963    8.3496   -1.6085 H         1 <0>         0.1267
     50 O3         -3.3126   -5.8972   -2.1960 O.co2     1 <0>        -0.7520
@<TRIPOS>BOND
     1    1    2 1
     2    1   31 1
     3    1   32 1
     4    1   33 1
     5    2   24 2
     6    2    3 1
     7    3    8 1
     8    3    4 2
     9    4    5 1
    10    4   23 1
    11    5    6 2
    12    6    7 1
    13    6   13 1
    14    7    8 am
    15    7   10 1
    16    8    9 2
    17   10   11 1
    18   10   34 1
    19   10   35 1
    20   11   12 2
    21   11   36 1
    22   12   37 1
    23   12   38 1
    24   13   14 1
    25   14   15 1
    26   14   39 1
    27   14   40 1
    28   15   20 ar
    29   15   16 ar
    30   16   17 ar
    31   16   41 1
    32   17   18 ar
    33   17   42 1
    34   18   19 ar
    35   18   43 1
    36   19   20 ar
    37   19   21 1
    38   20   44 1
    39   21   22 2
    40   21   50 1
    41   23   24 1
    42   24   25 1
    43   25   30 ar
    44   25   26 ar
    45   26   27 ar
    46   26   45 1
    47   27   28 ar
    48   27   46 1
    49   28   29 ar
    50   28   47 1
    51   29   30 ar
    52   29   48 1
    53   30   49 1
@<TRIPOS>MOLECULE
ZINC22135268
   40    43     0     0     0
SMALL
USER_CHARGES
2-chloro-4-[5-[(Z)-[5-(4-chlorophenyl)-2-oxo-3-furylidene]methyl]-2-furyl]benzoic acid
@<TRIPOS>ATOM
      1 C1         11.6760   -0.7732   -0.1238 C.ar      1 <0>        -0.0844
      2 C2         12.8281   -1.5309   -0.1345 C.ar      1 <0>        -0.1078
      3 C3         12.7510   -2.9138   -0.1401 C.ar      1 <0>        -0.0280
      4 C4         11.5181   -3.5448   -0.1296 C.ar      1 <0>        -0.1071
      5 C5         10.3585   -2.7988   -0.1134 C.ar      1 <0>        -0.0808
      6 C6         10.4292   -1.4035   -0.1077 C.ar      1 <0>        -0.0251
      7 C7          9.1921   -0.5987   -0.0910 C.2       1 <0>         0.0792
      8 C8          9.1599    0.7522   -0.0844 C.2       1 <0>        -0.1791
      9 C9          7.7400    1.1357   -0.0682 C.2       1 <0>        -0.2295
     10 C10         7.2040    2.4175   -0.0568 C.2       1 <0>         0.0823
     11 C11         5.8104    2.5962   -0.0418 C.2       1 <0>        -0.0667
     12 C12         5.1462    3.8146   -0.0289 C.2       1 <0>        -0.1207
     13 C13         3.7813    3.5293   -0.0221 C.2       1 <0>        -0.2223
     14 C14         3.6558    2.1559   -0.0222 C.2       1 <0>         0.1049
     15 O1          4.8863    1.6126   -0.0374 O.3       1 <0>        -0.1086
     16 C15         2.3854    1.4082   -0.0136 C.ar      1 <0>        -0.0463
     17 C16         2.3971    0.0088   -0.0208 C.ar      1 <0>        -0.0969
     18 C17         1.2227   -0.6867   -0.0133 C.ar      1 <0>        -0.0714
     19 C18         0.0021   -0.0041    0.0020 C.ar      1 <0>        -0.0831
     20 C19        -0.0169    1.3954    0.0097 C.ar      1 <0>        -0.0133
     21 C20         1.1687    2.0973    0.0022 C.ar      1 <0>        -0.0948
     22 Cl1        -1.5308    2.2450    0.0215 Cl        1 <0>        -0.0381
     23 C21        -1.2650   -0.7589    0.0106 C.2       1 <0>         0.4823
     24 O2         -2.3254   -0.1658    0.0243 O.co2     1 <0>        -0.6011
     25 O3         -1.2466   -2.1063    0.0031 O.co2     1 <0>        -0.7490
     26 C22         7.0150   -0.1457   -0.0602 C.2       1 <0>         0.4990
     27 O4          5.8074   -0.2979   -0.0416 O.2       1 <0>        -0.4023
     28 O5          7.9471   -1.1156   -0.0807 O.3       1 <0>        -0.2702
     29 Cl2        14.2062   -3.8603   -0.1598 Cl        1 <0>        -0.0659
     30 H1         11.7373    0.3051   -0.1236 H         1 <0>         0.1406
     31 H2         13.7926   -1.0450   -0.1424 H         1 <0>         0.1409
     32 H3         11.4649   -4.6235   -0.1336 H         1 <0>         0.1402
     33 H4          9.3978   -3.2920   -0.1049 H         1 <0>         0.1430
     34 H5         10.0991    1.3248   -0.0913 H         1 <0>         0.1689
     35 H6          7.8707    3.2925   -0.0595 H         1 <0>         0.1743
     36 H7          5.5992    4.7950   -0.0291 H         1 <0>         0.1605
     37 H8          2.9750    4.2478   -0.0159 H         1 <0>         0.1590
     38 H9          3.3376   -0.5220   -0.0326 H         1 <0>         0.1384
     39 H10         1.2361   -1.7666   -0.0189 H         1 <0>         0.1453
     40 H11         1.1583    3.1772    0.0077 H         1 <0>         0.1339
@<TRIPOS>BOND
     1    1    6 ar
     2    1    2 ar
     3    1   30 1
     4    2    3 ar
     5    2   31 1
     6    3    4 ar
     7    3   29 1
     8    4    5 ar
     9    4   32 1
    10    5    6 ar
    11    5   33 1
    12    6    7 1
    13    7   28 1
    14    7    8 2
    15    8    9 1
    16    8   34 1
    17    9   10 2
    18    9   26 1
    19   10   11 1
    20   10   35 1
    21   11   15 1
    22   11   12 2
    23   12   13 1
    24   12   36 1
    25   13   14 2
    26   13   37 1
    27   14   15 1
    28   14   16 1
    29   16   21 ar
    30   16   17 ar
    31   17   18 ar
    32   17   38 1
    33   18   19 ar
    34   18   39 1
    35   19   20 ar
    36   19   23 1
    37   20   21 ar
    38   20   22 1
    39   21   40 1
    40   23   24 2
    41   23   25 1
    42   26   27 2
    43   26   28 1
@<TRIPOS>MOLECULE
ZINC35421519
   52    56     0     0     0
SMALL
USER_CHARGES

@<TRIPOS>ATOM
      1 C1         -0.0184    1.5028    0.0103 C.3       1 <0>        -0.1077
      2 C2          0.0021   -0.0041    0.0020 C.ar      1 <0>        -0.0860
      3 C3          0.0060   -0.6984   -1.1994 C.ar      1 <0>        -0.1064
      4 C4          0.0249   -2.0680   -1.2350 C.ar      1 <0>        -0.0716
      5 C5          0.0407   -2.8218   -0.0384 C.ar      1 <0>         0.1132
      6 C6          0.0362   -2.0811    1.1658 C.ar      1 <0>        -0.1716
      7 C7          0.0229   -0.7088    1.1915 C.ar      1 <0>        -0.0567
      8 S1          0.0599   -3.3614    2.3974 S.3       1 <0>         0.0458
      9 C8          0.0738   -4.7523    1.2750 C.2       1 <0>         0.4100
     10 N1          0.0600   -4.1647    0.1009 N.2       1 <0>        -0.5456
     11 N2          0.0944   -6.1043    1.5687 N.am      1 <0>        -0.5041
     12 C9          0.1108   -7.2001    0.5925 C.3       1 <0>         0.2563
     13 H1         -0.7837   -7.1618   -0.0292 H         1 <0>         0.0922
     14 C10         0.1304   -8.4791    1.3967 C.2       1 <0>        -0.4669
     15 C11         0.1253   -8.1197    2.7015 C.2       1 <0>         0.2859
     16 C12         0.1089   -6.6471    2.7996 C.2       1 <0>         0.5103
     17 O1          0.1058   -6.0177    3.8391 O.2       1 <0>        -0.4808
     18 O2          0.1381   -8.9752    3.7505 O.3       1 <0>        -0.5893
     19 C13         0.1506   -9.8471    0.8655 C.2       1 <0>         0.4492
     20 O3          0.1653  -10.7969    1.6287 O.2       1 <0>        -0.4845
     21 C14         0.1531  -10.0706   -0.5811 C.2       1 <0>        -0.1865
     22 C15         0.1717  -11.3296   -1.0699 C.2       1 <0>        -0.0754
     23 C16         0.1743  -11.5541   -2.5236 C.ar      1 <0>        -0.0524
     24 C17         0.1633  -10.4662   -3.4033 C.ar      1 <0>        -0.1106
     25 C18         0.1657  -10.6851   -4.7645 C.ar      1 <0>        -0.1198
     26 C19         0.1785  -11.9770   -5.2614 C.ar      1 <0>        -0.1236
     27 C20         0.1895  -13.0587   -4.3978 C.ar      1 <0>        -0.1220
     28 C21         0.1935  -12.8567   -3.0340 C.ar      1 <0>        -0.1064
     29 C22         1.3442   -7.1088   -0.2687 C.ar      1 <0>        -0.0697
     30 C23         2.5575   -6.7637    0.2970 C.ar      1 <0>        -0.0698
     31 C24         3.6893   -6.6801   -0.4916 C.ar      1 <0>        -0.1481
     32 C25         3.6077   -6.9421   -1.8488 C.ar      1 <0>         0.0894
     33 C26         2.3919   -7.2877   -2.4142 C.ar      1 <0>        -0.1479
     34 C27         1.2625   -7.3758   -1.6226 C.ar      1 <0>        -0.0802
     35 F1          4.7133   -6.8603   -2.6208 F         1 <0>        -0.1456
     36 H2          1.0042    1.8801    0.0026 H         1 <0>         0.0709
     37 H3         -0.5455    1.8639   -0.8728 H         1 <0>         0.0679
     38 H4         -0.5286    1.8543    0.9071 H         1 <0>         0.0666
     39 H5         -0.0066   -0.1465   -2.1277 H         1 <0>         0.1287
     40 H6          0.0274   -2.5775   -2.1873 H         1 <0>         0.1300
     41 H7          0.0243   -0.1829    2.1348 H         1 <0>         0.1286
     42 H8          0.1402   -9.2288   -1.2575 H         1 <0>         0.1244
     43 H9          0.1847  -12.1714   -0.3935 H         1 <0>         0.1311
     44 H10         0.1525   -9.4577   -3.0171 H         1 <0>         0.1257
     45 H11         0.1572   -9.8464   -5.4449 H         1 <0>         0.1219
     46 H12         0.1796  -12.1419   -6.3288 H         1 <0>         0.1188
     47 H13         0.1994  -14.0636   -4.7934 H         1 <0>         0.1209
     48 H14         0.2065  -13.7016   -2.3615 H         1 <0>         0.1252
     49 H15         2.6208   -6.5590    1.3555 H         1 <0>         0.1213
     50 H16         4.6370   -6.4101   -0.0496 H         1 <0>         0.1307
     51 H17         2.3270   -7.4920   -3.4727 H         1 <0>         0.1328
     52 H18         0.3150   -7.6496   -2.0626 H         1 <0>         0.1314
@<TRIPOS>BOND
     1    1    2 1
     2    1   36 1
     3    1   37 1
     4    1   38 1
     5    2    7 ar
     6    2    3 ar
     7    3    4 ar
     8    3   39 1
     9    4    5 ar
    10    4   40 1
    11    5   10 1
    12    5    6 ar
    13    6    7 ar
    14    6    8 1
    15    7   41 1
    16    8    9 1
    17    9   10 2
    18    9   11 1
    19   11   16 am
    20   11   12 1
    21   12   13 1
    22   12   14 1
    23   12   29 1
    24   14   15 2
    25   14   19 1
    26   15   16 1
    27   15   18 1
    28   16   17 2
    29   19   20 2
    30   19   21 1
    31   21   22 2
    32   21   42 1
    33   22   23 1
    34   22   43 1
    35   23   28 ar
    36   23   24 ar
    37   24   25 ar
    38   24   44 1
    39   25   26 ar
    40   25   45 1
    41   26   27 ar
    42   26   46 1
    43   27   28 ar
    44   27   47 1
    45   28   48 1
    46   29   34 ar
    47   29   30 ar
    48   30   31 ar
    49   30   49 1
    50   31   32 ar
    51   31   50 1
    52   32   33 ar
    53   32   35 1
    54   33   34 ar
    55   33   51 1
    56   34   52 1
@<TRIPOS>MOLECULE
ZINC40944834
   51    54     0     0     0
SMALL
USER_CHARGES

@<TRIPOS>ATOM
      1 C1         -0.0187    1.5258    0.0104 C.3       1 <0>        -0.1485
      2 C2          0.0021   -0.0041    0.0020 C.3       1 <0>         0.0577
      3 O1          0.6709   -0.4649   -1.1737 O.3       1 <0>        -0.3516
      4 C3          0.7760   -1.8002   -1.3350 C.2       1 <0>         0.5837
      5 O2          0.3116   -2.5523   -0.4989 O.2       1 <0>        -0.5232
      6 C4          1.4480   -2.3436   -2.5147 C.2       1 <0>        -0.3236
      7 C5          2.8758   -2.6194   -2.5148 C.2       1 <0>        -0.0147
      8 C6          3.3422   -3.1171   -3.6788 C.2       1 <0>        -0.2409
      9 S1          1.9224   -3.2118   -4.7295 S.3       1 <0>         0.0042
     10 C7          0.7494   -2.6241   -3.6814 C.2       1 <0>         0.2525
     11 N1         -0.5998   -2.4557   -3.9249 N.2       1 <0>        -1.0237
     12 S2         -1.2312   -2.8584   -5.4019 S.o2      1 <0>         2.6032
     13 O3         -0.6681   -1.9559   -6.3441 O.2       1 <0>        -1.0083
     14 O4         -1.1041   -4.2681   -5.5272 O.2       1 <0>        -1.0062
     15 C8         -2.9578   -2.5118   -5.3424 C.ar      1 <0>        -0.6147
     16 C9         -3.8422   -3.5010   -4.9160 C.ar      1 <0>        -0.0315
     17 C10        -5.1815   -3.2662   -4.8588 C.ar      1 <0>        -0.1319
     18 C11        -5.6836   -2.0083   -5.2340 C.ar      1 <0>        -0.0185
     19 C12        -7.0600   -1.7284   -5.1877 C.ar      1 <0>        -0.1176
     20 C13        -7.5099   -0.4986   -5.5584 C.ar      1 <0>        -0.1051
     21 C14        -6.6255    0.4907   -5.9844 C.ar      1 <0>        -0.1319
     22 C15        -5.2862    0.2556   -6.0421 C.ar      1 <0>        -0.0867
     23 C16        -4.7842   -1.0023   -5.6672 C.ar      1 <0>        -0.0779
     24 C17        -3.4072   -1.2804   -5.7082 C.ar      1 <0>         0.0088
     25 C18         4.7564   -3.4979   -3.9921 C.3       1 <0>        -0.0196
     26 C19         5.6696   -2.8867   -2.9192 C.3       1 <0>        -0.1110
     27 C20         5.0826   -3.1900   -1.5376 C.3       1 <0>        -0.1102
     28 C21         3.7993   -2.3829   -1.3288 C.3       1 <0>        -0.0311
     29 H1          4.0415   -1.3224   -1.2597 H         1 <0>         0.0767
     30 C22         3.1093   -2.8399   -0.0419 C.3       1 <0>        -0.1529
     31 H2          1.0039    1.9031    0.0027 H         1 <0>         0.0625
     32 H3         -0.5459    1.8868   -0.8726 H         1 <0>         0.0646
     33 H4         -0.5289    1.8773    0.9072 H         1 <0>         0.0704
     34 H5          0.5293   -0.3651    0.8851 H         1 <0>         0.0573
     35 H6         -1.0205   -0.3814    0.0098 H         1 <0>         0.0604
     36 H7         -3.4590   -4.4685   -4.6271 H         1 <0>         0.1384
     37 H8         -5.8550   -4.0425   -4.5270 H         1 <0>         0.1324
     38 H9         -7.7572   -2.4854   -4.8600 H         1 <0>         0.1280
     39 H10        -8.5682   -0.2862   -5.5221 H         1 <0>         0.1227
     40 H11        -7.0087    1.4582   -6.2735 H         1 <0>         0.1237
     41 H12        -4.6127    1.0317   -6.3747 H         1 <0>         0.1309
     42 H13        -2.7097   -0.5221   -6.0321 H         1 <0>         0.1443
     43 H14         4.8550   -4.5834   -3.9835 H         1 <0>         0.0665
     44 H15         5.0323   -3.1111   -4.9731 H         1 <0>         0.0677
     45 H16         6.6657   -3.3223   -2.9963 H         1 <0>         0.0637
     46 H17         5.7290   -1.8077   -3.0618 H         1 <0>         0.0646
     47 H18         4.8570   -4.2539   -1.4657 H         1 <0>         0.0649
     48 H19         5.8079   -2.9221   -0.7693 H         1 <0>         0.0603
     49 H20         2.8753   -3.9022   -0.1127 H         1 <0>         0.0583
     50 H21         3.7725   -2.6696    0.8061 H         1 <0>         0.0476
     51 H22         2.1885   -2.2736    0.0974 H         1 <0>         0.0653
@<TRIPOS>BOND
     1    1    2 1
     2    1   31 1
     3    1   32 1
     4    1   33 1
     5    2    3 1
     6    2   34 1
     7    2   35 1
     8    3    4 1
     9    4    5 2
    10    4    6 1
    11    6   10 2
    12    6    7 1
    13    7   28 1
    14    7    8 2
    15    8    9 1
    16    8   25 1
    17    9   10 1
    18   10   11 1
    19   11   12 1
    20   12   13 2
    21   12   14 2
    22   12   15 1
    23   15   24 ar
    24   15   16 ar
    25   16   17 ar
    26   16   36 1
    27   17   18 ar
    28   17   37 1
    29   18   23 ar
    30   18   19 ar
    31   19   20 ar
    32   19   38 1
    33   20   21 ar
    34   20   39 1
    35   21   22 ar
    36   21   40 1
    37   22   23 ar
    38   22   41 1
    39   23   24 ar
    40   24   42 1
    41   25   26 1
    42   25   43 1
    43   25   44 1
    44   26   27 1
    45   26   45 1
    46   26   46 1
    47   27   28 1
    48   27   47 1
    49   27   48 1
    50   28   29 1
    51   28   30 1
    52   30   49 1
    53   30   50 1
    54   30   51 1
@<TRIPOS>MOLECULE
ZINC12192100
   47    49     0     0     0
SMALL
USER_CHARGES

@<TRIPOS>ATOM
      1 C1         -0.0157    1.3058    0.0092 C.2       1 <0>        -0.1636
      2 C2          0.0021   -0.0041    0.0020 C.2       1 <0>        -0.1735
      3 C3         -1.2926   -0.7753    0.0102 C.3       1 <0>         0.1267
      4 N1         -1.3176   -1.6997   -1.1260 N.am      1 <0>        -0.5387
      5 C4         -1.8162   -1.2799   -2.2762 C.2       1 <0>         0.5309
      6 O1         -2.2516   -0.1573   -2.4184 O.2       1 <0>        -0.4835
      7 C5         -1.8086   -2.2934   -3.4095 C.3       1 <0>        -0.0883
      8 H1         -2.8212   -2.5227   -3.7414 H         1 <0>         0.1512
      9 S1         -1.0440   -3.7338   -2.5558 S.3       1 <0>        -0.1257
     10 C6         -0.8157   -2.9708   -0.9565 C.2       1 <0>         0.3899
     11 N2         -0.2927   -3.4996    0.1284 N.2       1 <0>        -0.4402
     12 C7          0.1566   -4.7858    0.1110 C.ar      1 <0>         0.0666
     13 C8         -0.6167   -5.7896   -0.4859 C.ar      1 <0>        -0.1493
     14 C9         -0.1674   -7.0768   -0.5036 C.ar      1 <0>        -0.0705
     15 C10         1.0682   -7.3954    0.0755 C.ar      1 <0>        -0.1194
     16 C11         1.8417   -6.3909    0.6726 C.ar      1 <0>        -0.0780
     17 C12         1.3943   -5.1029    0.6849 C.ar      1 <0>        -0.1034
     18 C13         1.5526   -8.7827    0.0571 C.2       1 <0>         0.5172
     19 O2          0.8768   -9.6599   -0.4640 O.co2     1 <0>        -0.6842
     20 O3          2.6318   -9.0608    0.5629 O.co2     1 <0>        -0.6849
     21 C14        -0.9419   -1.8147   -4.5760 C.3       1 <0>        -0.0529
     22 C15        -1.0602   -2.7866   -5.7216 C.ar      1 <0>        -0.0845
     23 C16        -0.1903   -3.8582   -5.8097 C.ar      1 <0>        -0.0833
     24 C17        -0.2954   -4.7504   -6.8583 C.ar      1 <0>        -0.0839
     25 C18        -1.2770   -4.5709   -7.8256 C.ar      1 <0>        -0.0911
     26 C19        -2.1496   -3.4931   -7.7335 C.ar      1 <0>        -0.1210
     27 C20        -2.0419   -2.6079   -6.6793 C.ar      1 <0>        -0.0910
     28 S2         -1.4145   -5.7066   -9.1657 S.3       1 <0>        -0.0937
     29 C21        -2.8059   -5.0695  -10.1398 C.3       1 <0>         0.2708
     30 F1         -3.9586   -5.0474   -9.3472 F         1 <0>        -0.1804
     31 F2         -2.5148   -3.7725  -10.5758 F         1 <0>        -0.1818
     32 H2          0.9122    1.8585    0.0033 H         1 <0>         0.1021
     33 H3         -0.9582    1.8330    0.0166 H         1 <0>         0.0997
     34 H4          0.9446   -0.5313   -0.0098 H         1 <0>         0.1150
     35 H5         -1.3737   -1.3393    0.9394 H         1 <0>         0.1073
     36 H6         -2.1295   -0.0812   -0.0676 H         1 <0>         0.0971
     37 H7         -1.5692   -5.5440   -0.9319 H         1 <0>         0.1230
     38 H8         -0.7639   -7.8507   -0.9635 H         1 <0>         0.1318
     39 H9          2.7940   -6.6361    1.1190 H         1 <0>         0.1345
     40 H10         1.9924   -4.3280    1.1411 H         1 <0>         0.1223
     41 H11        -1.2791   -0.8297   -4.8988 H         1 <0>         0.1007
     42 H12         0.0982   -1.7556   -4.2555 H         1 <0>         0.0915
     43 H13         0.5723   -3.9971   -5.0577 H         1 <0>         0.1392
     44 H14         0.3847   -5.5866   -6.9269 H         1 <0>         0.1346
     45 H15        -2.9136   -3.3505   -8.4834 H         1 <0>         0.1261
     46 H16        -2.7222   -1.7724   -6.6049 H         1 <0>         0.1308
     47 H17        -2.9707   -5.7145  -11.0028 H         1 <0>         0.1577
@<TRIPOS>BOND
     1    1    2 2
     2    1   32 1
     3    1   33 1
     4    2    3 1
     5    2   34 1
     6    3    4 1
     7    3   35 1
     8    3   36 1
     9    4   10 1
    10    4    5 am
    11    5    6 2
    12    5    7 1
    13    7    8 1
    14    7    9 1
    15    7   21 1
    16    9   10 1
    17   10   11 2
    18   11   12 1
    19   12   17 ar
    20   12   13 ar
    21   13   14 ar
    22   13   37 1
    23   14   15 ar
    24   14   38 1
    25   15   16 ar
    26   15   18 1
    27   16   17 ar
    28   16   39 1
    29   17   40 1
    30   18   19 2
    31   18   20 1
    32   21   22 1
    33   21   41 1
    34   21   42 1
    35   22   27 ar
    36   22   23 ar
    37   23   24 ar
    38   23   43 1
    39   24   25 ar
    40   24   44 1
    41   25   26 ar
    42   25   28 1
    43   26   27 ar
    44   26   45 1
    45   27   46 1
    46   28   29 1
    47   29   30 1
    48   29   31 1
    49   29   47 1
@<TRIPOS>MOLECULE
ZINC64952433
   42    44     0     0     0
SMALL
USER_CHARGES

@<TRIPOS>ATOM
      1 C1          0.5856    1.5486   -0.1108 C.3       1 <0>        -0.0960
      2 C2          0.4519    0.0519    0.0046 C.ar      1 <0>        -0.1504
      3 C3          1.4751   -0.7679   -0.4350 C.ar      1 <0>        -0.1107
      4 C4          1.3559   -2.1399   -0.3307 C.ar      1 <0>        -0.1195
      5 C5          0.2066   -2.6960    0.2164 C.ar      1 <0>         0.2439
      6 C6         -0.8193   -1.8695    0.6570 C.ar      1 <0>        -0.1600
      7 C7         -0.6912   -0.4982    0.5550 C.ar      1 <0>        -0.1059
      8 C8         -2.0682   -2.4684    1.2508 C.3       1 <0>        -0.1004
      9 N1          0.0825   -4.0832    0.3230 N.2       1 <0>        -1.1135
     10 S1          0.0457   -4.7990    1.8158 S.o2      1 <0>         2.6156
     11 O1          1.2066   -4.3578    2.5065 O.2       1 <0>        -1.0249
     12 O2         -1.2655   -4.6038    2.3276 O.2       1 <0>        -1.0122
     13 C9          0.2362   -6.5329    1.5670 C.2       1 <0>        -0.7011
     14 C10         1.3880   -7.2470    1.5318 C.2       1 <0>        -0.0839
     15 C11         1.3269   -8.6047    1.3246 C.2       1 <0>        -0.0740
     16 C12         0.0511   -9.1324    1.1660 C.2       1 <0>        -0.2079
     17 S2         -0.9684   -7.6788    1.3267 S.3       1 <0>         0.3512
     18 C13        -0.3380  -10.4754    0.9398 C.2       1 <0>         0.2333
     19 N2          0.4464  -11.5193    0.8372 N.2       1 <0>        -0.3113
     20 N3         -0.2689  -12.6913    0.6145 N.2       1 <0>        -0.2204
     21 C14        -1.5455  -12.4900    0.5584 C.2       1 <0>        -0.0153
     22 C15        -1.7492  -11.0036    0.7727 C.3       1 <0>        -0.1468
     23 C16        -2.6158  -13.5264    0.3319 C.3       1 <0>         0.5555
     24 F1         -2.0226  -14.7849    0.1850 F         1 <0>        -0.1577
     25 F2         -3.4855  -13.5458    1.4275 F         1 <0>        -0.1624
     26 F3         -3.3328  -13.2108   -0.8272 F         1 <0>        -0.1619
     27 C17         2.4712   -3.0326   -0.8105 C.3       1 <0>        -0.0912
     28 H1          1.0504    1.9426    0.7930 H         1 <0>         0.0540
     29 H2          1.2049    1.7926   -0.9739 H         1 <0>         0.0533
     30 H3         -0.4019    1.9930   -0.2349 H         1 <0>         0.0531
     31 H4          2.3682   -0.3349   -0.8606 H         1 <0>         0.1030
     32 H5         -1.4865    0.1451    0.9014 H         1 <0>         0.1023
     33 H6         -1.9272   -2.6150    2.3217 H         1 <0>         0.0681
     34 H7         -2.9089   -1.7949    1.0840 H         1 <0>         0.0386
     35 H8         -2.2719   -3.4283    0.7764 H         1 <0>         0.0776
     36 H9          2.3407   -6.7559    1.6644 H         1 <0>         0.1506
     37 H10         2.2129   -9.2212    1.2871 H         1 <0>         0.1541
     38 H11        -2.3369  -10.8203    1.6722 H         1 <0>         0.1528
     39 H12        -2.2270  -10.5540   -0.0977 H         1 <0>         0.1530
     40 H13         3.1686   -3.2141    0.0073 H         1 <0>         0.0525
     41 H14         2.0562   -3.9811   -1.1515 H         1 <0>         0.0741
     42 H15         2.9954   -2.5483   -1.6343 H         1 <0>         0.0408
@<TRIPOS>BOND
     1    1    2 1
     2    1   28 1
     3    1   29 1
     4    1   30 1
     5    2    7 ar
     6    2    3 ar
     7    3    4 ar
     8    3   31 1
     9    4    5 ar
    10    4   27 1
    11    5    6 ar
    12    5    9 1
    13    6    7 ar
    14    6    8 1
    15    7   32 1
    16    8   33 1
    17    8   34 1
    18    8   35 1
    19    9   10 1
    20   10   11 2
    21   10   12 2
    22   10   13 1
    23   13   17 1
    24   13   14 2
    25   14   15 1
    26   14   36 1
    27   15   16 2
    28   15   37 1
    29   16   17 1
    30   16   18 1
    31   18   22 1
    32   18   19 2
    33   19   20 1
    34   20   21 2
    35   21   22 1
    36   21   23 1
    37   22   38 1
    38   22   39 1
    39   23   24 1
    40   23   25 1
    41   23   26 1
    42   27   40 1
    43   27   41 1
    44   27   42 1
@<TRIPOS>MOLECULE
ZINC09328398
   57    61     0     0     0
SMALL
USER_CHARGES
(5R)-5-(3,4-dichlorophenyl)-3-hydroxy-1-(3-imidazol-1-ylpropyl)-4-[(2S)-2-methyl2,3-dihydrobenzofuran-5-carbonyl]-5H-pyrrol-2-one
@<TRIPOS>ATOM
      1 C1          2.1828    5.5477    4.7355 C.3       1 <0>        -0.1802
      2 C2          0.9003    5.3764    3.9189 C.3       1 <0>         0.0725
      3 H1          0.1991    6.1569    4.2493 H         1 <0>         0.1150
      4 C3          1.2127    5.3669    2.4038 C.3       1 <0>        -0.0983
      5 C4          1.3699    3.8841    2.1262 C.ar      1 <0>        -0.1857
      6 C5          1.9173    3.1990    1.0702 C.ar      1 <0>        -0.0213
      7 C6          1.9381    1.8002    1.0833 C.ar      1 <0>        -0.1662
      8 C7          1.4006    1.1145    2.1772 C.ar      1 <0>        -0.0317
      9 C8          0.8489    1.8104    3.2259 C.ar      1 <0>        -0.1538
     10 C9          0.8276    3.2067    3.2152 C.ar      1 <0>         0.1214
     11 O1          0.3291    4.0752    4.1351 O.3       1 <0>        -0.3016
     12 C10         2.5231    1.0541   -0.0481 C.2       1 <0>         0.5087
     13 O2          2.9254    1.6525   -1.0286 O.2       1 <0>        -0.4729
     14 C11         2.6194   -0.4079    0.0092 C.2       1 <0>        -0.5021
     15 C12         3.7558   -1.1400    0.0733 C.2       1 <0>         0.2668
     16 C13         3.4069   -2.5755    0.1157 C.2       1 <0>         0.5137
     17 O3          4.2087   -3.4864    0.1761 O.2       1 <0>        -0.5289
     18 N1          2.0703   -2.7246    0.0781 N.am      1 <0>        -0.6137
     19 C14         1.4690   -1.3873    0.0148 C.3       1 <0>         0.2661
     20 H2          0.7979   -1.2340    0.8727 H         1 <0>         0.0744
     21 C15         0.6612   -1.2450   -1.2495 C.ar      1 <0>        -0.0554
     22 C16         1.0789   -1.8696   -2.4102 C.ar      1 <0>        -0.0802
     23 C17         0.3360   -1.7445   -3.5689 C.ar      1 <0>        -0.0978
     24 C18        -0.8202   -0.9847   -3.5707 C.ar      1 <0>        -0.0383
     25 C19        -1.2353   -0.3547   -2.4099 C.ar      1 <0>        -0.0264
     26 C20        -0.4935   -0.4856   -1.2495 C.ar      1 <0>        -0.0950
     27 Cl1        -2.6861    0.5986   -2.4104 Cl        1 <0>        -0.0585
     28 Cl2        -1.7502   -0.8220   -5.0275 Cl        1 <0>        -0.0617
     29 C21         1.3437   -3.9964    0.1018 C.3       1 <0>         0.1372
     30 C22         1.0437   -4.3855    1.5507 C.3       1 <0>        -0.1550
     31 C23         0.2848   -5.7138    1.5755 C.3       1 <0>         0.1052
     32 N2         -0.0025   -6.0864    2.9629 N.pl3     1 <0>        -0.4548
     33 C24         0.7917   -6.8427    3.7818 C.2       1 <0>        -0.0528
     34 C25         0.1540   -6.9373    4.9642 C.2       1 <0>        -0.0346
     35 N3         -1.0025   -6.2649    4.8668 N.2       1 <0>        -0.4989
     36 C26        -1.1030   -5.7526    3.6708 C.2       1 <0>         0.1800
     37 O4          5.0119   -0.6375    0.0947 O.3       1 <0>        -0.6475
     38 H3          2.6016    6.5487    4.5548 H         1 <0>         0.0743
     39 H4          2.9146    4.7840    4.4334 H         1 <0>         0.0643
     40 H5          1.9542    5.4336    5.8054 H         1 <0>         0.0669
     41 H6          0.3761    5.8228    1.8541 H         1 <0>         0.0888
     42 H7          2.1317    5.9413    2.2153 H         1 <0>         0.0910
     43 H8          2.3306    3.7386    0.2310 H         1 <0>         0.1315
     44 H9          1.4152    0.0348    2.1958 H         1 <0>         0.1410
     45 H10         0.4323    1.2740    4.0657 H         1 <0>         0.1285
     46 H11         1.9839   -2.4589   -2.4103 H         1 <0>         0.1341
     47 H12         0.6606   -2.2361   -4.4741 H         1 <0>         0.1389
     48 H13        -0.8169    0.0054   -0.3436 H         1 <0>         0.1402
     49 H14         0.3994   -3.8896   -0.4522 H         1 <0>         0.0802
     50 H15         1.9580   -4.7785   -0.3682 H         1 <0>         0.0841
     51 H16         1.9880   -4.4924    2.1047 H         1 <0>         0.0784
     52 H17         0.4294   -3.6034    2.0207 H         1 <0>         0.0764
     53 H18        -0.6595   -5.6070    1.0215 H         1 <0>         0.0971
     54 H19         0.8991   -6.4959    1.1055 H         1 <0>         0.0953
     55 H20         1.7473   -7.2780    3.5292 H         1 <0>         0.1723
     56 H21         0.5091   -7.4662    5.8363 H         1 <0>         0.1670
     57 H22        -1.9292   -5.1594    3.3075 H         1 <0>         0.2024
@<TRIPOS>BOND
     1    1    2 1
     2    1   38 1
     3    1   39 1
     4    1   40 1
     5    2    3 1
     6    2   11 1
     7    2    4 1
     8    4    5 1
     9    4   41 1
    10    4   42 1
    11    5   10 ar
    12    5    6 ar
    13    6    7 ar
    14    6   43 1
    15    7    8 ar
    16    7   12 1
    17    8    9 ar
    18    8   44 1
    19    9   10 ar
    20    9   45 1
    21   10   11 1
    22   12   13 2
    23   12   14 1
    24   14   19 1
    25   14   15 2
    26   15   16 1
    27   15   37 1
    28   16   17 2
    29   16   18 am
    30   18   19 1
    31   18   29 1
    32   19   20 1
    33   19   21 1
    34   21   26 ar
    35   21   22 ar
    36   22   23 ar
    37   22   46 1
    38   23   24 ar
    39   23   47 1
    40   24   25 ar
    41   24   28 1
    42   25   26 ar
    43   25   27 1
    44   26   48 1
    45   29   30 1
    46   29   49 1
    47   29   50 1
    48   30   31 1
    49   30   51 1
    50   30   52 1
    51   31   32 1
    52   31   53 1
    53   31   54 1
    54   32   36 1
    55   32   33 1
    56   33   34 2
    57   33   55 1
    58   34   35 1
    59   34   56 1
    60   35   36 2
    61   36   57 1
@<TRIPOS>MOLECULE
ZINC35910293
   57    61     0     0     0
SMALL
USER_CHARGES

@<TRIPOS>ATOM
      1 C1         -3.1597   -4.3458   -0.0836 C.3       1 <0>        -0.1014
      2 C2         -2.0534   -4.9886    0.7127 C.ar      1 <0>        -0.1320
      3 C3         -1.6994   -6.3023    0.4658 C.ar      1 <0>        -0.0762
      4 C4         -0.6857   -6.8974    1.1934 C.ar      1 <0>        -0.2093
      5 C5         -0.0212   -6.1775    2.1732 C.ar      1 <0>         0.1579
      6 C6         -0.3770   -4.8540    2.4221 C.ar      1 <0>         0.1233
      7 C7         -1.3915   -4.2618    1.6840 C.ar      1 <0>        -0.0755
      8 N1          0.2916   -4.1210    3.4117 N.am      1 <0>        -0.5430
      9 C8          1.4090   -3.2278    3.0516 C.3       1 <0>         0.2463
     10 H1          1.0428   -2.3013    2.6093 H         1 <0>         0.0930
     11 S1          2.1712   -2.9183    4.7025 S.3       1 <0>        -0.1118
     12 C9          0.6993   -3.4027    5.7045 C.3       1 <0>        -0.1236
     13 C10        -0.0768   -4.2182    4.6826 C.2       1 <0>         0.5294
     14 O1         -0.9967   -4.9344    5.0174 O.2       1 <0>        -0.5384
     15 C11         2.3784   -3.9190    2.1277 C.ar      1 <0>        -0.1880
     16 C12         2.2766   -3.7432    0.7615 C.ar      1 <0>        -0.0426
     17 C13         3.1653   -4.3773   -0.0869 C.ar      1 <0>        -0.2391
     18 C14         4.1592   -5.1891    0.4289 C.ar      1 <0>        -0.0525
     19 C15         4.2670   -5.3689    1.7937 C.ar      1 <0>        -0.2642
     20 C16         3.3789   -4.7290    2.6494 C.ar      1 <0>         0.3190
     21 N2          3.4883   -4.9044    4.0307 N.2       1 <0>        -0.9815
     22 S2          4.6818   -5.8706    4.6507 S.o2      1 <0>         2.5702
     23 O2          4.3918   -7.1960    4.2283 O.2       1 <0>        -1.0457
     24 O3          5.9160   -5.2303    4.3572 O.2       1 <0>        -1.0183
     25 C17         4.5091   -5.8517    6.4041 C.ar      1 <0>        -0.5783
     26 C18         4.1852   -6.9931    7.0710 C.ar      1 <0>        -0.0133
     27 C19         4.0437   -7.0005    8.4569 C.ar      1 <0>        -0.1387
     28 C20         4.2259   -5.8636    9.1839 C.ar      1 <0>        -0.0668
     29 C21         4.5613   -4.6678    8.5292 C.ar      1 <0>        -0.1251
     30 C22         4.7110   -4.6591    7.1201 C.ar      1 <0>         0.2055
     31 N3          5.0344   -3.5238    6.4925 N.ar      1 <0>        -0.4274
     32 C23         5.2234   -2.4088    7.1553 C.ar      1 <0>         0.1374
     33 C24         5.0975   -2.3496    8.5417 C.ar      1 <0>        -0.1822
     34 C25         4.7578   -3.4709    9.2438 C.ar      1 <0>        -0.0619
     35 O4          0.9754   -6.7618    2.8903 O.3       1 <0>        -0.2711
     36 C26         1.2858   -8.1219    2.5809 C.3       1 <0>         0.0300
     37 H2         -2.7415   -3.8793   -0.9755 H         1 <0>         0.0644
     38 H3         -3.8847   -5.1051   -0.3767 H         1 <0>         0.0608
     39 H4         -3.6529   -3.5883    0.5254 H         1 <0>         0.0605
     40 H5         -2.2165   -6.8650   -0.2972 H         1 <0>         0.1201
     41 H6         -0.4120   -7.9237    0.9984 H         1 <0>         0.1273
     42 H7         -1.6668   -3.2344    1.8715 H         1 <0>         0.1238
     43 H8          0.9885   -4.0116    6.5611 H         1 <0>         0.1207
     44 H9          0.1312   -2.5274    6.0193 H         1 <0>         0.1056
     45 H10         1.5016   -3.1099    0.3554 H         1 <0>         0.0993
     46 H11         3.0830   -4.2387   -1.1548 H         1 <0>         0.0986
     47 H12         4.8515   -5.6832   -0.2365 H         1 <0>         0.0973
     48 H13         5.0430   -6.0032    2.1959 H         1 <0>         0.0957
     49 H14         4.0351   -7.9078    6.5168 H         1 <0>         0.1413
     50 H15         3.7857   -7.9199    8.9613 H         1 <0>         0.1288
     51 H16         4.1128   -5.8816   10.2578 H         1 <0>         0.1283
     52 H17         5.4839   -1.5123    6.6124 H         1 <0>         0.1575
     53 H18         5.2598   -1.4160    9.0597 H         1 <0>         0.1329
     54 H19         4.6550   -3.4428   10.3185 H         1 <0>         0.1325
     55 H20         0.4046   -8.7421    2.7450 H         1 <0>         0.0422
     56 H21         1.5932   -8.1962    1.5378 H         1 <0>         0.0496
     57 H22         2.0964   -8.4649    3.2238 H         1 <0>         0.1086
@<TRIPOS>BOND
     1    1    2 1
     2    1   37 1
     3    1   38 1
     4    1   39 1
     5    2    7 ar
     6    2    3 ar
     7    3    4 ar
     8    3   40 1
     9    4    5 ar
    10    4   41 1
    11    5    6 ar
    12    5   35 1
    13    6    7 ar
    14    6    8 1
    15    7   42 1
    16    8   13 am
    17    8    9 1
    18    9   10 1
    19    9   11 1
    20    9   15 1
    21   11   12 1
    22   12   13 1
    23   12   43 1
    24   12   44 1
    25   13   14 2
    26   15   20 ar
    27   15   16 ar
    28   16   17 ar
    29   16   45 1
    30   17   18 ar
    31   17   46 1
    32   18   19 ar
    33   18   47 1
    34   19   20 ar
    35   19   48 1
    36   20   21 1
    37   21   22 1
    38   22   23 2
    39   22   24 2
    40   22   25 1
    41   25   30 ar
    42   25   26 ar
    43   26   27 ar
    44   26   49 1
    45   27   28 ar
    46   27   50 1
    47   28   29 ar
    48   28   51 1
    49   29   34 ar
    50   29   30 ar
    51   30   31 ar
    52   31   32 ar
    53   32   33 ar
    54   32   52 1
    55   33   34 ar
    56   33   53 1
    57   34   54 1
    58   35   36 1
    59   36   55 1
    60   36   56 1
    61   36   57 1
@<TRIPOS>MOLECULE
ZINC39835307
   49    53     0     0     0
SMALL
USER_CHARGES

@<TRIPOS>ATOM
      1 C1         -0.0009   -1.4981   -4.0725 C.3       1 <0>        -0.0752
      2 C2          0.0817   -2.2209   -2.7527 C.2       1 <0>        -0.0012
      3 C3         -0.9536   -2.8140   -2.1160 C.2       1 <0>        -0.2243
      4 C4         -0.4489   -3.3664   -0.9298 C.2       1 <0>        -0.1461
      5 C5          0.8979   -3.0756   -0.9034 C.2       1 <0>        -0.0682
      6 O1          1.1933   -2.3847   -2.0240 O.3       1 <0>        -0.1437
      7 C6          1.8426   -3.4545    0.1517 C.2       1 <0>         0.5492
      8 O2          1.4398   -4.0057    1.1610 O.2       1 <0>        -0.4440
      9 C7          3.2728   -3.1702   -0.0077 C.2       1 <0>        -0.4841
     10 C8          4.2671   -4.0793   -0.1397 C.2       1 <0>         0.2781
     11 C9          5.5555   -3.3736   -0.2756 C.2       1 <0>         0.5152
     12 O3          6.6357   -3.9144   -0.4110 O.2       1 <0>        -0.4807
     13 N1          5.3590   -2.0435   -0.2279 N.am      1 <0>        -0.5003
     14 C10         3.9200   -1.8060   -0.0628 C.3       1 <0>         0.3131
     15 H1          3.5316   -1.2407   -0.9099 H         1 <0>         0.1066
     16 C11         3.6647   -1.0589    1.2208 C.2       1 <0>        -0.1175
     17 C12         2.7734   -0.0684    1.4692 C.2       1 <0>        -0.1552
     18 C13         2.7129    0.4763    2.7381 C.2       1 <0>        -0.1461
     19 C14         3.5466    0.0038    3.6967 C.2       1 <0>        -0.1914
     20 S1          4.4523   -1.2542    2.8110 S.3       1 <0>         0.0482
     21 C15         6.3437   -1.0671   -0.3232 C.2       1 <0>         0.3243
     22 N2          6.2408    0.2518   -0.2802 N.2       1 <0>        -0.3083
     23 N3          7.2477    1.0043   -0.3833 N.2       1 <0>        -0.2474
     24 C16         8.4713    0.5197   -0.5411 C.2       1 <0>        -0.0309
     25 S2          8.1141   -1.2349   -0.5311 S.3       1 <0>         0.0913
     26 S3         10.0105    1.3613   -0.7059 S.3       1 <0>         0.0463
     27 C17         9.5631    3.1167   -0.6108 C.3       1 <0>        -0.0727
     28 C18        10.8058    3.9595   -0.7399 C.ar      1 <0>        -0.1128
     29 C19        11.5215    4.3133    0.3883 C.ar      1 <0>        -0.0700
     30 C20        12.6613    5.0863    0.2702 C.ar      1 <0>        -0.1303
     31 C21        13.0868    5.5065   -0.9765 C.ar      1 <0>        -0.0830
     32 C22        12.3731    5.1536   -2.1059 C.ar      1 <0>        -0.1553
     33 C23        11.2340    4.3749   -1.9892 C.ar      1 <0>         0.1191
     34 F1         10.5380    4.0253   -3.0931 F         1 <0>        -0.1300
     35 O4          4.1050   -5.4234   -0.1455 O.3       1 <0>        -0.6274
     36 H2          0.9866   -1.1262   -4.3455 H         1 <0>         0.0769
     37 H3         -0.3560   -2.1845   -4.8411 H         1 <0>         0.0851
     38 H4         -0.6932   -0.6606   -3.9854 H         1 <0>         0.0848
     39 H5         -1.9775   -2.8545   -2.4571 H         1 <0>         0.1493
     40 H6         -1.0064   -3.9127   -0.1834 H         1 <0>         0.1548
     41 H7          2.1205    0.2902    0.6871 H         1 <0>         0.1299
     42 H8          2.0120    1.2668    2.9624 H         1 <0>         0.1285
     43 H9          3.6368    0.3069    4.7294 H         1 <0>         0.1800
     44 H10         8.8734    3.3602   -1.4189 H         1 <0>         0.1086
     45 H11         9.0853    3.3185    0.3479 H         1 <0>         0.1119
     46 H12        11.1899    3.9860    1.3626 H         1 <0>         0.1384
     47 H13        13.2198    5.3626    1.1523 H         1 <0>         0.1334
     48 H14        13.9771    6.1110   -1.0676 H         1 <0>         0.1345
     49 H15        12.7055    5.4822   -3.0795 H         1 <0>         0.1385
@<TRIPOS>BOND
     1    1    2 1
     2    1   36 1
     3    1   37 1
     4    1   38 1
     5    2    6 1
     6    2    3 2
     7    3    4 1
     8    3   39 1
     9    4    5 2
    10    4   40 1
    11    5    6 1
    12    5    7 1
    13    7    8 2
    14    7    9 1
    15    9   14 1
    16    9   10 2
    17   10   11 1
    18   10   35 1
    19   11   12 2
    20   11   13 am
    21   13   14 1
    22   13   21 1
    23   14   15 1
    24   14   16 1
    25   16   20 1
    26   16   17 2
    27   17   18 1
    28   17   41 1
    29   18   19 2
    30   18   42 1
    31   19   20 1
    32   19   43 1
    33   21   25 1
    34   21   22 2
    35   22   23 1
    36   23   24 2
    37   24   25 1
    38   24   26 1
    39   26   27 1
    40   27   28 1
    41   27   44 1
    42   27   45 1
    43   28   33 ar
    44   28   29 ar
    45   29   30 ar
    46   29   46 1
    47   30   31 ar
    48   30   47 1
    49   31   32 ar
    50   31   48 1
    51   32   33 ar
    52   32   49 1
    53   33   34 1
@<TRIPOS>MOLECULE
ZINC40000172
   55    58     0     0     0
SMALL
USER_CHARGES

@<TRIPOS>ATOM
      1 C1         -3.8542   -1.8190   -5.7104 C.3       1 <0>        -0.1505
      2 C2         -3.1685   -2.8132   -4.7711 C.3       1 <0>         0.0520
      3 O1         -3.9782   -3.0075   -3.6098 O.3       1 <0>        -0.3129
      4 C3         -3.5103   -3.8664   -2.6692 C.ar      1 <0>         0.1446
      5 C4         -2.2901   -4.5057   -2.8596 C.ar      1 <0>        -0.2196
      6 C5         -1.8119   -5.3777   -1.9080 C.ar      1 <0>        -0.0254
      7 C6         -2.5547   -5.6200   -0.7483 C.ar      1 <0>        -0.1683
      8 C7         -3.7806   -4.9749   -0.5606 C.ar      1 <0>        -0.0330
      9 C8         -4.2495   -4.1005   -1.5152 C.ar      1 <0>        -0.1349
     10 C9         -5.5682   -3.4001   -1.3113 C.3       1 <0>        -0.0992
     11 C10        -2.0459   -6.5548    0.2747 C.2       1 <0>         0.5110
     12 O2         -2.6664   -6.7224    1.3083 O.2       1 <0>        -0.4682
     13 C11        -0.7937   -7.2809    0.0458 C.2       1 <0>        -0.4815
     14 C12        -0.6530   -8.6184   -0.1142 C.2       1 <0>         0.2719
     15 C13         0.7743   -8.9349   -0.3205 C.2       1 <0>         0.5127
     16 O3          1.2230  -10.0511   -0.4941 O.2       1 <0>        -0.4836
     17 N1          1.5051   -7.8059   -0.2880 N.am      1 <0>        -0.5000
     18 C14         0.5889   -6.6815   -0.0638 C.3       1 <0>         0.2692
     19 H1          0.6310   -5.9874   -0.9032 H         1 <0>         0.0933
     20 C15         0.9487   -5.9711    1.2156 C.ar      1 <0>        -0.0992
     21 C16         1.6397   -6.6411    2.2076 C.ar      1 <0>        -0.0739
     22 C17         1.9699   -5.9898    3.3812 C.ar      1 <0>        -0.1263
     23 C18         1.6094   -4.6676    3.5644 C.ar      1 <0>        -0.0973
     24 C19         0.9189   -3.9956    2.5739 C.ar      1 <0>        -0.1519
     25 C20         0.5922   -4.6456    1.3955 C.ar      1 <0>         0.1128
     26 F1         -0.0788   -3.9882    0.4245 F         1 <0>        -0.1329
     27 C21         2.8833   -7.7190   -0.4448 C.2       1 <0>         0.3199
     28 N2          3.6771   -6.6599   -0.4210 N.2       1 <0>        -0.3102
     29 N3          4.9243   -6.7560   -0.5820 N.2       1 <0>        -0.2495
     30 C22         5.5167   -7.9244   -0.7850 C.2       1 <0>        -0.0259
     31 S1          4.0927   -9.0084   -0.7288 S.3       1 <0>         0.0867
     32 S2          7.2195   -8.3032   -1.0331 S.3       1 <0>         0.0294
     33 C23         8.0445   -6.6898   -0.9503 C.3       1 <0>        -0.1142
     34 C24         9.5496   -6.8756   -1.1528 C.3       1 <0>        -0.1378
     35 O4         -1.6605   -9.5213   -0.0887 O.3       1 <0>        -0.6311
     36 H2         -3.2365   -1.6708   -6.5962 H         1 <0>         0.0761
     37 H3         -4.8269   -2.2112   -6.0072 H         1 <0>         0.0650
     38 H4         -3.9876   -0.8668   -5.1970 H         1 <0>         0.0648
     39 H5         -3.0350   -3.7654   -5.2844 H         1 <0>         0.0623
     40 H6         -2.1958   -2.4210   -4.4743 H         1 <0>         0.0622
     41 H7         -1.7171   -4.3181   -3.7556 H         1 <0>         0.1274
     42 H8         -0.8645   -5.8743   -2.0570 H         1 <0>         0.1307
     43 H9         -4.3574   -5.1593    0.3337 H         1 <0>         0.1364
     44 H10        -6.3707   -4.0075   -1.7299 H         1 <0>         0.0646
     45 H11        -5.7411   -3.2544   -0.2450 H         1 <0>         0.0637
     46 H12        -5.5465   -2.4319   -1.8115 H         1 <0>         0.0664
     47 H13         1.9215   -7.6740    2.0658 H         1 <0>         0.1157
     48 H14         2.5095   -6.5142    4.1559 H         1 <0>         0.1241
     49 H15         1.8673   -4.1599    4.4821 H         1 <0>         0.1283
     50 H16         0.6372   -2.9629    2.7173 H         1 <0>         0.1328
     51 H17         7.6504   -6.0396   -1.7314 H         1 <0>         0.0954
     52 H18         7.8621   -6.2381    0.0248 H         1 <0>         0.0955
     53 H19        10.0454   -5.9062   -1.1030 H         1 <0>         0.0791
     54 H20         9.9438   -7.5258   -0.3717 H         1 <0>         0.0668
     55 H21         9.7320   -7.3274   -2.1279 H         1 <0>         0.0667
@<TRIPOS>BOND
     1    1    2 1
     2    1   36 1
     3    1   37 1
     4    1   38 1
     5    2    3 1
     6    2   39 1
     7    2   40 1
     8    3    4 1
     9    4    9 ar
    10    4    5 ar
    11    5    6 ar
    12    5   41 1
    13    6    7 ar
    14    6   42 1
    15    7    8 ar
    16    7   11 1
    17    8    9 ar
    18    8   43 1
    19    9   10 1
    20   10   44 1
    21   10   45 1
    22   10   46 1
    23   11   12 2
    24   11   13 1
    25   13   18 1
    26   13   14 2
    27   14   15 1
    28   14   35 1
    29   15   16 2
    30   15   17 am
    31   17   18 1
    32   17   27 1
    33   18   19 1
    34   18   20 1
    35   20   25 ar
    36   20   21 ar
    37   21   22 ar
    38   21   47 1
    39   22   23 ar
    40   22   48 1
    41   23   24 ar
    42   23   49 1
    43   24   25 ar
    44   24   50 1
    45   25   26 1
    46   27   31 1
    47   27   28 2
    48   28   29 1
    49   29   30 2
    50   30   31 1
    51   30   32 1
    52   32   33 1
    53   33   34 1
    54   33   51 1
    55   33   52 1
    56   34   53 1
    57   34   54 1
    58   34   55 1
@<TRIPOS>MOLECULE
ZINC08715205
   47    48     0     0     0
SMALL
USER_CHARGES

@<TRIPOS>ATOM
      1 C1          3.8697    1.4273   -1.6787 C.3       1 <0>         0.0274
      2 O1          3.1822    0.1944   -1.4570 O.3       1 <0>        -0.3152
      3 C2          3.5450   -0.8628   -2.2316 C.ar      1 <0>         0.0642
      4 C3          4.5460   -0.7160   -3.1806 C.ar      1 <0>        -0.1243
      5 C4          4.9142   -1.7895   -3.9676 C.ar      1 <0>        -0.1957
      6 C5          4.2834   -3.0147   -3.8087 C.ar      1 <0>         0.1944
      7 C6          3.2830   -3.1616   -2.8596 C.ar      1 <0>        -0.6372
      8 C7          2.9183   -2.0891   -2.0688 C.ar      1 <0>        -0.0179
      9 S1          2.4817   -4.7178   -2.6578 S.o2      1 <0>         2.6673
     10 O2          3.5094   -5.6945   -2.5626 O.2       1 <0>        -0.9784
     11 O3          1.5019   -4.5416   -1.6438 O.2       1 <0>        -0.9888
     12 N1          1.6597   -5.0309   -4.0609 N.2       1 <0>        -1.0283
     13 C8          0.9718   -6.1324   -4.1817 C.2       1 <0>         0.5032
     14 N2          0.9291   -7.0352   -3.1424 N.2       1 <0>        -0.6841
     15 C9          0.7137   -8.3923   -3.4034 C.ar      1 <0>         0.2041
     16 C10         1.1502   -8.9490   -4.5985 C.ar      1 <0>        -0.1228
     17 C11         0.9359  -10.2894   -4.8531 C.ar      1 <0>        -0.1522
     18 C12         0.2875  -11.0770   -3.9196 C.ar      1 <0>        -0.0993
     19 C13        -0.1485  -10.5258   -2.7286 C.ar      1 <0>        -0.1573
     20 C14         0.0678   -9.1873   -2.4654 C.ar      1 <0>        -0.0855
     21 C15        -0.8551  -11.3877   -1.7144 C.3       1 <0>         0.5128
     22 F1          0.0846  -11.9463   -0.8414 F         1 <0>        -0.1784
     23 F2         -1.7599  -10.6062   -0.9878 F         1 <0>        -0.1762
     24 F3         -1.5462  -12.4108   -2.3724 F         1 <0>        -0.1804
     25 C16         1.4089  -10.8943   -6.1498 C.3       1 <0>         0.5109
     26 F4          2.0301   -9.9090   -6.9248 F         1 <0>        -0.1742
     27 F5          2.3213  -11.9200   -5.8806 F         1 <0>        -0.1806
     28 F6          0.3142  -11.4153   -6.8480 F         1 <0>        -0.1794
     29 S2          0.0973   -6.4656   -5.6746 S.3       1 <0>        -0.1598
     30 C17         0.4470   -5.0243   -6.7191 C.3       1 <0>        -0.1145
     31 O4          4.6456   -4.0716   -4.5839 O.3       1 <0>        -0.2933
     32 C18         5.6828   -3.8486   -5.5413 C.3       1 <0>         0.0271
     33 H1          4.9357    1.2860   -1.5007 H         1 <0>         0.0524
     34 H2          3.7129    1.7508   -2.7078 H         1 <0>         0.0528
     35 H3          3.4848    2.1857   -0.9969 H         1 <0>         0.0994
     36 H4          5.0372    0.2379   -3.3044 H         1 <0>         0.1340
     37 H5          5.6930   -1.6750   -4.7070 H         1 <0>         0.1365
     38 H6          2.1420   -2.2045   -1.3268 H         1 <0>         0.1553
     39 H7          1.6564   -8.3344   -5.3281 H         1 <0>         0.1449
     40 H8          0.1208  -12.1248   -4.1212 H         1 <0>         0.1308
     41 H9         -0.2690   -8.7584   -1.5332 H         1 <0>         0.1375
     42 H10         1.5219   -4.9456   -6.8817 H         1 <0>         0.0826
     43 H11        -0.0581   -5.1394   -7.6782 H         1 <0>         0.0887
     44 H12         0.0872   -4.1217   -6.2251 H         1 <0>         0.0819
     45 H13         5.3740   -3.0678   -6.2363 H         1 <0>         0.0558
     46 H14         6.5919   -3.5379   -5.0263 H         1 <0>         0.0550
     47 H15         5.8737   -4.7700   -6.0914 H         1 <0>         0.1045
@<TRIPOS>BOND
     1    1    2 1
     2    1   33 1
     3    1   34 1
     4    1   35 1
     5    2    3 1
     6    3    8 ar
     7    3    4 ar
     8    4    5 ar
     9    4   36 1
    10    5    6 ar
    11    5   37 1
    12    6    7 ar
    13    6   31 1
    14    7    8 ar
    15    7    9 1
    16    8   38 1
    17    9   10 2
    18    9   11 2
    19    9   12 1
    20   12   13 2
    21   13   14 1
    22   13   29 1
    23   14   15 1
    24   15   20 ar
    25   15   16 ar
    26   16   17 ar
    27   16   39 1
    28   17   18 ar
    29   17   25 1
    30   18   19 ar
    31   18   40 1
    32   19   20 ar
    33   19   21 1
    34   20   41 1
    35   21   22 1
    36   21   23 1
    37   21   24 1
    38   25   26 1
    39   25   27 1
    40   25   28 1
    41   29   30 1
    42   30   42 1
    43   30   43 1
    44   30   44 1
    45   31   32 1
    46   32   45 1
    47   32   46 1
    48   32   47 1
@<TRIPOS>MOLECULE
ZINC09380431
   58    61     0     0     0
SMALL
USER_CHARGES
(4E,5S)-4-[(4-bromophenyl)-hydroxy-methylene]-1-(3-imidazol-1-ylpropyl)-5-(4-isopropylphenyl)pyrrolidine-2,3-dione
@<TRIPOS>ATOM
      1 C1          3.8660    1.3228    2.2691 C.3       1 <0>        -0.1399
      2 C2          4.6073    1.4609    0.9378 C.3       1 <0>        -0.0538
      3 C3          5.4725    0.2207    0.7049 C.3       1 <0>        -0.1441
      4 C4          3.6078    1.5936   -0.1822 C.ar      1 <0>        -0.0852
      5 C5          3.6079    2.7237   -0.9784 C.ar      1 <0>        -0.1227
      6 C6          2.6909    2.8457   -2.0054 C.ar      1 <0>        -0.0819
      7 C7          1.7743    1.8372   -2.2370 C.ar      1 <0>        -0.0691
      8 C8          1.7710    0.7093   -1.4378 C.ar      1 <0>        -0.0993
      9 C9          2.6906    0.5856   -0.4132 C.ar      1 <0>        -0.1224
     10 C10         0.7745    1.9702   -3.3568 C.3       1 <0>         0.2665
     11 H1          0.6871    3.0336   -3.6243 H         1 <0>         0.0718
     12 C11         1.2030    1.1226   -4.5323 C.2       1 <0>        -0.4940
     13 C12         2.3738    1.2367   -5.2537 C.2       1 <0>         0.3945
     14 C13         2.7077    0.2336   -6.2794 C.ar      1 <0>        -0.0538
     15 C14         2.6760   -1.1293   -5.9660 C.ar      1 <0>        -0.0481
     16 C15         2.9840   -2.0625   -6.9324 C.ar      1 <0>        -0.0994
     17 C16         3.3355   -1.6531   -8.2084 C.ar      1 <0>        -0.0885
     18 C17         3.3745   -0.3048   -8.5244 C.ar      1 <0>        -0.1046
     19 C18         3.0635    0.6395   -7.5698 C.ar      1 <0>        -0.0853
     20 Br1         3.7647   -2.9409   -9.5249 Br        1 <0>        -0.0728
     21 O1          3.2132    2.2678   -5.0194 O.2       1 <0>        -0.6251
     22 C19         0.1695    0.1955   -4.7424 C.2       1 <0>         0.3693
     23 O2          0.1447   -0.6634   -5.6050 O.3       1 <0>        -0.4951
     24 C20        -0.8903    0.4449   -3.7278 C.2       1 <0>         0.4771
     25 O3         -1.9241   -0.1843   -3.6325 O.2       1 <0>        -0.5313
     26 N1         -0.5313    1.4621   -2.9267 N.am      1 <0>        -0.5997
     27 C21        -1.3232    1.9870   -1.8115 C.3       1 <0>         0.1369
     28 C22        -0.9500    1.2442   -0.5269 C.3       1 <0>        -0.1667
     29 C23        -1.7769    1.7924    0.6377 C.3       1 <0>         0.1038
     30 N2         -1.4196    1.0812    1.8677 N.pl3     1 <0>        -0.4401
     31 C24        -2.0085   -0.0574    2.3479 C.2       1 <0>        -0.0543
     32 C25        -1.3743   -0.3705    3.4939 C.2       1 <0>        -0.0305
     33 N3         -0.4303    0.5570    3.7125 N.2       1 <0>        -0.4965
     34 C26        -0.4516    1.4297    2.7424 C.2       1 <0>         0.1974
     35 H2          3.2440    2.2144    2.4366 H         1 <0>         0.0536
     36 H3          4.5956    1.2259    3.0866 H         1 <0>         0.0528
     37 H4          3.2256    0.4289    2.2412 H         1 <0>         0.0567
     38 H5          5.2398    2.3607    0.9534 H         1 <0>         0.0724
     39 H6          6.0055    0.3199   -0.2522 H         1 <0>         0.0560
     40 H7          4.8321   -0.6732    0.6770 H         1 <0>         0.0556
     41 H8          6.2021    0.1238    1.5225 H         1 <0>         0.0532
     42 H9          4.3243    3.5114   -0.7977 H         1 <0>         0.1131
     43 H10         2.6908    3.7287   -2.6272 H         1 <0>         0.1207
     44 H11         1.0520   -0.0767   -1.6160 H         1 <0>         0.1088
     45 H12         2.6902   -0.2972    0.2091 H         1 <0>         0.1101
     46 H13         2.4069   -1.4497   -4.9703 H         1 <0>         0.1255
     47 H14         2.9557   -3.1153   -6.6931 H         1 <0>         0.1264
     48 H15         3.6491    0.0071   -9.5213 H         1 <0>         0.1267
     49 H16         3.0946    1.6903   -7.8175 H         1 <0>         0.1299
     50 H17        -2.3932    1.8418   -2.0213 H         1 <0>         0.0814
     51 H18        -1.1161    3.0602   -1.6878 H         1 <0>         0.0810
     52 H19        -1.1572    0.1710   -0.6506 H         1 <0>         0.0740
     53 H20         0.1200    1.3892   -0.3172 H         1 <0>         0.0950
     54 H21        -1.5697    2.8656    0.7613 H         1 <0>         0.0971
     55 H22        -2.8469    1.6474    0.4280 H         1 <0>         0.0940
     56 H23        -2.7551   -0.6339    2.0159 H         1 <0>         0.1624
     57 H24        -1.6502   -1.1794    4.0131 H         1 <0>         0.1529
     58 H25         0.1912    2.1957    2.7449 H         1 <0>         0.1874
@<TRIPOS>BOND
     1    1    2 1
     2    1   35 1
     3    1   36 1
     4    1   37 1
     5    2    3 1
     6    2    4 1
     7    2   38 1
     8    3   39 1
     9    3   40 1
    10    3   41 1
    11    4    9 ar
    12    4    5 ar
    13    5    6 ar
    14    5   42 1
    15    6    7 ar
    16    6   43 1
    17    7    8 ar
    18    7   10 1
    19    8    9 ar
    20    8   44 1
    21    9   45 1
    22   10   12 1
    23   10   26 1
    24   10   11 1
    25   12   22 2
    26   12   13 1
    27   13   21 2
    28   13   14 1
    29   14   19 ar
    30   14   15 ar
    31   15   16 ar
    32   15   46 1
    33   16   17 ar
    34   16   47 1
    35   17   18 ar
    36   17   20 1
    37   18   19 ar
    38   18   48 1
    39   19   49 1
    40   22   24 1
    41   22   23 1
    42   24   26 am
    43   24   25 2
    44   26   27 1
    45   27   28 1
    46   27   50 1
    47   27   51 1
    48   28   29 1
    49   28   52 1
    50   28   53 1
    51   29   30 1
    52   29   54 1
    53   29   55 1
    54   30   34 1
    55   30   31 1
    56   31   32 2
    57   31   56 1
    58   32   33 1
    59   32   57 1
    60   33   34 2
    61   34   58 1
@<TRIPOS>MOLECULE
ZINC34921165
   53    57     0     0     0
SMALL
USER_CHARGES

@<TRIPOS>ATOM
      1 C1         -0.0386   -1.6054   -4.0526 C.3       1 <0>        -0.0748
      2 C2          0.0668   -2.3129   -2.7262 C.2       1 <0>        -0.0025
      3 C3         -0.9533   -2.9167   -2.0749 C.2       1 <0>        -0.2242
      4 C4         -0.4299   -3.4484   -0.8876 C.2       1 <0>        -0.1477
      5 C5          0.9121   -3.1349   -0.8752 C.2       1 <0>        -0.0672
      6 O1          1.1867   -2.4503   -2.0049 O.3       1 <0>        -0.1430
      7 C6          1.8714   -3.4867    0.1760 C.2       1 <0>         0.5483
      8 O2          1.4859   -4.0339    1.1942 O.2       1 <0>        -0.4458
      9 C7          3.2957   -3.1801    0.0020 C.2       1 <0>        -0.4802
     10 C8          4.3028   -4.0734   -0.1364 C.2       1 <0>         0.2714
     11 C9          5.5788   -3.3476   -0.2861 C.2       1 <0>         0.5151
     12 O3          6.6659   -3.8713   -0.4297 O.2       1 <0>        -0.4822
     13 N1          5.3615   -2.0206   -0.2405 N.am      1 <0>        -0.5037
     14 C10         3.9203   -1.8058   -0.0638 C.3       1 <0>         0.2733
     15 H1          3.5153   -1.2500   -0.9095 H         1 <0>         0.0910
     16 C11         3.6644   -1.0581    1.2194 C.ar      1 <0>        -0.1017
     17 C12         4.3752   -1.3819    2.3603 C.ar      1 <0>        -0.0530
     18 C13         4.1421   -0.6983    3.5379 C.ar      1 <0>        -0.1468
     19 C14         3.1943    0.3141    3.5750 C.ar      1 <0>         0.1230
     20 C15         2.4828    0.6373    2.4287 C.ar      1 <0>        -0.2058
     21 C16         2.7233   -0.0458    1.2523 C.ar      1 <0>        -0.0601
     22 O4          2.9628    0.9877    4.7324 O.3       1 <0>        -0.3141
     23 C17         1.9728    2.0176    4.6968 C.3       1 <0>         0.0865
     24 C18         1.8548    2.6483    6.0603 C.2       1 <0>        -0.1514
     25 C19         1.7999    3.9520    6.1764 C.2       1 <0>        -0.1765
     26 C20         6.3251   -1.0332   -0.3474 C.2       1 <0>         0.4219
     27 N2          6.1765    0.2704   -0.3044 N.2       1 <0>        -0.5486
     28 C21         7.2165    1.1239   -0.4229 C.ar      1 <0>         0.1305
     29 C22         7.1932    2.5377   -0.3945 C.ar      1 <0>        -0.0655
     30 C23         8.3493    3.2601   -0.5313 C.ar      1 <0>        -0.0953
     31 C24         9.5784    2.6368   -0.7017 C.ar      1 <0>        -0.0398
     32 C25         9.6381    1.2547   -0.7337 C.ar      1 <0>        -0.0398
     33 C26         8.4844    0.5236   -0.5974 C.ar      1 <0>        -0.1765
     34 S1          8.0896   -1.2085   -0.5712 S.3       1 <0>         0.0636
     35 Cl1        11.0248    3.5814   -0.8732 Cl        1 <0>        -0.0642
     36 O5          4.1619   -5.4199   -0.1371 O.3       1 <0>        -0.6339
     37 H2          0.9403   -1.2198   -4.3375 H         1 <0>         0.0768
     38 H3         -0.3881   -2.3057   -4.8112 H         1 <0>         0.0848
     39 H4         -0.7442   -0.7789   -3.9685 H         1 <0>         0.0844
     40 H5         -1.9792   -2.9776   -2.4070 H         1 <0>         0.1489
     41 H6         -0.9723   -3.9958   -0.1309 H         1 <0>         0.1544
     42 H7          5.1129   -2.1701    2.3309 H         1 <0>         0.1187
     43 H8          4.6970   -0.9520    4.4290 H         1 <0>         0.1265
     44 H9          1.7444    1.4250    2.4551 H         1 <0>         0.1235
     45 H10         2.1728    0.2084    0.3586 H         1 <0>         0.1225
     46 H11         2.2633    2.7758    3.9696 H         1 <0>         0.0658
     47 H12         1.0125    1.5887    4.4105 H         1 <0>         0.0714
     48 H13         1.8154    2.0255    6.9418 H         1 <0>         0.1191
     49 H14         1.8393    4.5748    5.2950 H         1 <0>         0.0990
     50 H15         1.7154    4.4040    7.1536 H         1 <0>         0.1062
     51 H16         6.2535    3.0537   -0.2639 H         1 <0>         0.1393
     52 H17         8.3037    4.3389   -0.5064 H         1 <0>         0.1392
     53 H18        10.5861    0.7546   -0.8658 H         1 <0>         0.1394
@<TRIPOS>BOND
     1    1    2 1
     2    1   37 1
     3    1   38 1
     4    1   39 1
     5    2    6 1
     6    2    3 2
     7    3    4 1
     8    3   40 1
     9    4    5 2
    10    4   41 1
    11    5    6 1
    12    5    7 1
    13    7    8 2
    14    7    9 1
    15    9   14 1
    16    9   10 2
    17   10   11 1
    18   10   36 1
    19   11   12 2
    20   11   13 am
    21   13   14 1
    22   13   26 1
    23   14   15 1
    24   14   16 1
    25   16   21 ar
    26   16   17 ar
    27   17   18 ar
    28   17   42 1
    29   18   19 ar
    30   18   43 1
    31   19   20 ar
    32   19   22 1
    33   20   21 ar
    34   20   44 1
    35   21   45 1
    36   22   23 1
    37   23   24 1
    38   23   46 1
    39   23   47 1
    40   24   25 2
    41   24   48 1
    42   25   49 1
    43   25   50 1
    44   26   34 1
    45   26   27 2
    46   27   28 1
    47   28   33 ar
    48   28   29 ar
    49   29   30 ar
    50   29   51 1
    51   30   31 ar
    52   30   52 1
    53   31   32 ar
    54   31   35 1
    55   32   33 ar
    56   32   53 1
    57   33   34 1
@<TRIPOS>MOLECULE
ZINC35566504
   57    61     0     0     0
SMALL
USER_CHARGES

@<TRIPOS>ATOM
      1 C1         -0.0534    1.8574    1.5195 C.3       1 <0>        -0.1064
      2 C2          0.0458    0.3739    1.2736 C.ar      1 <0>        -0.0813
      3 C3          0.3790   -0.1072    0.0154 C.ar      1 <0>        -0.1108
      4 C4          0.4759   -1.4509   -0.2349 C.ar      1 <0>        -0.0358
      5 C5          0.2368   -2.3959    0.7898 C.ar      1 <0>         0.1144
      6 C6         -0.0999   -1.8696    2.0580 C.ar      1 <0>        -0.1548
      7 C7         -0.1886   -0.5216    2.3008 C.ar      1 <0>        -0.0650
      8 S1         -0.3130   -3.3395    3.0330 S.3       1 <0>         0.0002
      9 C8          0.0461   -4.5203    1.7404 C.2       1 <0>         0.4221
     10 N1          0.2900   -3.7429    0.7109 N.2       1 <0>        -0.5340
     11 N2          0.0628   -5.9023    1.8076 N.am      1 <0>        -0.5085
     12 C9         -0.2275   -6.7130    2.9961 C.3       1 <0>         0.2701
     13 H1          0.4835   -6.4830    3.7896 H         1 <0>         0.0826
     14 C10        -0.0799   -8.1545    2.5678 C.2       1 <0>        -0.4923
     15 C11         0.2616   -8.1395    1.2586 C.2       1 <0>         0.2783
     16 C12         0.3423   -6.7411    0.7935 C.2       1 <0>         0.5125
     17 O1          0.6228   -6.3979   -0.3379 O.2       1 <0>        -0.4638
     18 O2          0.4885   -9.2341    0.4950 O.3       1 <0>        -0.6306
     19 C13        -0.2696   -9.3416    3.4095 C.2       1 <0>         0.5531
     20 O3         -1.1732  -10.1220    3.1673 O.2       1 <0>        -0.4497
     21 C14         0.6286   -9.5885    4.5422 C.2       1 <0>        -0.2558
     22 C15         0.6578  -10.6504    5.4387 C.2       1 <0>         0.1170
     23 N3          1.5852  -10.6033    6.3617 N.2       1 <0>        -0.5240
     24 C16         2.4383   -9.6069    6.4335 C.2       1 <0>         0.0338
     25 S2          1.9953   -8.6126    5.1500 S.3       1 <0>         0.1610
     26 C17         3.5542   -9.4054    7.4261 C.3       1 <0>        -0.0625
     27 C18        -0.3230  -11.7914    5.3533 C.3       1 <0>        -0.0835
     28 C19        -1.6343   -6.4531    3.4699 C.ar      1 <0>        -0.1246
     29 C20        -2.6748   -6.4244    2.5598 C.ar      1 <0>        -0.0454
     30 C21        -3.9652   -6.1859    2.9916 C.ar      1 <0>        -0.1469
     31 C22        -4.2167   -5.9755    4.3396 C.ar      1 <0>         0.1258
     32 C23        -3.1709   -6.0053    5.2508 C.ar      1 <0>        -0.2057
     33 C24        -1.8830   -6.2493    4.8146 C.ar      1 <0>        -0.0650
     34 O4         -5.4851   -5.7403    4.7667 O.3       1 <0>        -0.3192
     35 C25        -5.6696   -5.5324    6.1685 C.3       1 <0>         0.0286
     36 C26         0.8407   -1.9269   -1.6174 C.3       1 <0>        -0.1113
     37 H2          0.9192    2.2403    1.8283 H         1 <0>         0.0706
     38 H3         -0.3665    2.3574    0.6030 H         1 <0>         0.0676
     39 H4         -0.7848    2.0473    2.3051 H         1 <0>         0.0663
     40 H5          0.5659    0.5934   -0.7849 H         1 <0>         0.1286
     41 H6         -0.4442   -0.1627    3.2868 H         1 <0>         0.1278
     42 H7          4.4670   -9.8628    7.0444 H         1 <0>         0.0874
     43 H8          3.7182   -8.3384    7.5769 H         1 <0>         0.0842
     44 H9          3.2847   -9.8692    8.3749 H         1 <0>         0.0888
     45 H10         0.0838  -12.5731    4.7118 H         1 <0>         0.0767
     46 H11        -0.4989  -12.1948    6.3506 H         1 <0>         0.0687
     47 H12        -1.2635  -11.4316    4.9359 H         1 <0>         0.0927
     48 H13        -2.4786   -6.5883    1.5105 H         1 <0>         0.1233
     49 H14        -4.7775   -6.1629    2.2802 H         1 <0>         0.1286
     50 H15        -3.3641   -5.8417    6.3007 H         1 <0>         0.1262
     51 H16        -1.0692   -6.2769    5.5241 H         1 <0>         0.1234
     52 H17        -5.3360   -6.4153    6.7137 H         1 <0>         0.0543
     53 H18        -5.0881   -4.6673    6.4871 H         1 <0>         0.0536
     54 H19        -6.7255   -5.3560    6.3738 H         1 <0>         0.0960
     55 H20         1.9241   -2.0173   -1.6965 H         1 <0>         0.0708
     56 H21         0.3808   -2.8981   -1.8004 H         1 <0>         0.0786
     57 H22         0.4811   -1.2098   -2.3553 H         1 <0>         0.0634
@<TRIPOS>BOND
     1    1    2 1
     2    1   37 1
     3    1   38 1
     4    1   39 1
     5    2    7 ar
     6    2    3 ar
     7    3    4 ar
     8    3   40 1
     9    4    5 ar
    10    4   36 1
    11    5   10 1
    12    5    6 ar
    13    6    7 ar
    14    6    8 1
    15    7   41 1
    16    8    9 1
    17    9   10 2
    18    9   11 1
    19   11   16 am
    20   11   12 1
    21   12   13 1
    22   12   14 1
    23   12   28 1
    24   14   15 2
    25   14   19 1
    26   15   16 1
    27   15   18 1
    28   16   17 2
    29   19   20 2
    30   19   21 1
    31   21   25 1
    32   21   22 2
    33   22   23 1
    34   22   27 1
    35   23   24 2
    36   24   25 1
    37   24   26 1
    38   26   42 1
    39   26   43 1
    40   26   44 1
    41   27   45 1
    42   27   46 1
    43   27   47 1
    44   28   33 ar
    45   28   29 ar
    46   29   30 ar
    47   29   48 1
    48   30   31 ar
    49   30   49 1
    50   31   32 ar
    51   31   34 1
    52   32   33 ar
    53   32   50 1
    54   33   51 1
    55   34   35 1
    56   35   52 1
    57   35   53 1
    58   35   54 1
    59   36   55 1
    60   36   56 1
    61   36   57 1
@<TRIPOS>MOLECULE
ZINC39991540
   56    59     0     0     0
SMALL
USER_CHARGES

@<TRIPOS>ATOM
      1 C1         -0.5192    1.8045   -0.6052 C.3       1 <0>        -0.0822
      2 C2          0.7199    1.0128   -0.9351 C.2       1 <0>         0.1314
      3 C3          0.7435    0.0830   -1.9718 C.2       1 <0>        -0.2597
      4 S1          2.4297   -0.4940   -1.8570 S.3       1 <0>         0.2413
      5 C4          2.9160    0.4617   -0.5600 C.2       1 <0>        -0.0251
      6 N1          1.8332    1.1646   -0.2680 N.2       1 <0>        -0.5128
      7 S2          4.4948    0.5181    0.2202 S.3       1 <0>         0.1087
      8 C5          4.2651    1.6304    1.5673 C.ar      1 <0>        -0.1374
      9 C6          3.9541    1.1404    2.8298 C.ar      1 <0>        -0.0551
     10 C7          3.7752    2.0149    3.8833 C.ar      1 <0>        -0.1322
     11 C8          3.9049    3.3772    3.6830 C.ar      1 <0>        -0.0862
     12 C9          4.2145    3.8685    2.4277 C.ar      1 <0>        -0.1307
     13 C10         4.4003    2.9993    1.3709 C.ar      1 <0>        -0.0498
     14 C11        -0.2860   -0.2998   -2.8692 C.2       1 <0>         0.5437
     15 O1         -1.3981    0.1894   -2.7657 O.2       1 <0>        -0.4603
     16 C12        -0.0127   -1.2851   -3.9227 C.2       1 <0>        -0.5085
     17 C13        -0.0365   -1.0668   -5.2571 C.2       1 <0>         0.2694
     18 C14         0.2964   -2.3202   -5.9608 C.2       1 <0>         0.5133
     19 O2          0.3570   -2.4470   -7.1680 O.2       1 <0>        -0.5303
     20 N2          0.5232   -3.3020   -5.0693 N.am      1 <0>        -0.6106
     21 C15         0.3559   -2.7370   -3.7250 C.3       1 <0>         0.2651
     22 H1          1.2876   -2.8144   -3.1646 H         1 <0>         0.0703
     23 C16        -0.7492   -3.4579   -2.9970 C.ar      1 <0>        -0.0810
     24 C17        -1.9201   -3.7759   -3.6596 C.ar      1 <0>        -0.0610
     25 C18        -2.9341   -4.4374   -2.9932 C.ar      1 <0>        -0.1522
     26 C19        -2.7769   -4.7817   -1.6613 C.ar      1 <0>         0.0851
     27 C20        -1.6037   -4.4628   -0.9987 C.ar      1 <0>        -0.1536
     28 C21        -0.5890   -3.8059   -1.6687 C.ar      1 <0>        -0.0885
     29 F1         -3.7676   -5.4280   -1.0087 F         1 <0>        -0.1470
     30 C22         0.8798   -4.6876   -5.3843 C.3       1 <0>         0.1403
     31 C23         2.4023   -4.8176   -5.4610 C.3       1 <0>        -0.1382
     32 C24         2.7747   -6.2647   -5.7900 C.3       1 <0>         0.0660
     33 O3          4.1968   -6.3860   -5.8616 O.3       1 <0>        -0.3908
     34 C25         4.6529   -7.7058   -6.1653 C.3       1 <0>         0.0321
     35 O4         -0.3213    0.1155   -5.8533 O.3       1 <0>        -0.6478
     36 H2         -0.5240    2.7291   -1.1824 H         1 <0>         0.0772
     37 H3         -1.4029    1.2166   -0.8535 H         1 <0>         0.0955
     38 H4         -0.5270    2.0404    0.4590 H         1 <0>         0.0671
     39 H5          3.8519    0.0767    2.9868 H         1 <0>         0.1310
     40 H6          3.5334    1.6347    4.8648 H         1 <0>         0.1280
     41 H7          3.7638    4.0590    4.5086 H         1 <0>         0.1261
     42 H8          4.3146    4.9329    2.2747 H         1 <0>         0.1281
     43 H9          4.6465    3.3834    0.3920 H         1 <0>         0.1302
     44 H10        -2.0427   -3.5069   -4.6984 H         1 <0>         0.1286
     45 H11        -3.8489   -4.6853   -3.5109 H         1 <0>         0.1309
     46 H12        -1.4801   -4.7306    0.0402 H         1 <0>         0.1302
     47 H13         0.3279   -3.5610   -1.1533 H         1 <0>         0.1283
     48 H14         0.4976   -5.3472   -4.6052 H         1 <0>         0.0771
     49 H15         0.4426   -4.9663   -6.3431 H         1 <0>         0.0807
     50 H16         2.7845   -4.1580   -6.2400 H         1 <0>         0.0772
     51 H17         2.8395   -4.5389   -4.5022 H         1 <0>         0.0751
     52 H18         2.3926   -6.9243   -5.0109 H         1 <0>         0.0496
     53 H19         2.3376   -6.5434   -6.7487 H         1 <0>         0.0503
     54 H20         5.7423   -7.7144   -6.2016 H         1 <0>         0.0838
     55 H21         4.3097   -8.3953   -5.3940 H         1 <0>         0.0395
     56 H22         4.2547   -8.0144   -7.1319 H         1 <0>         0.0398
@<TRIPOS>BOND
     1    1    2 1
     2    1   36 1
     3    1   37 1
     4    1   38 1
     5    2    6 1
     6    2    3 2
     7    3    4 1
     8    3   14 1
     9    4    5 1
    10    5    6 2
    11    5    7 1
    12    7    8 1
    13    8   13 ar
    14    8    9 ar
    15    9   10 ar
    16    9   39 1
    17   10   11 ar
    18   10   40 1
    19   11   12 ar
    20   11   41 1
    21   12   13 ar
    22   12   42 1
    23   13   43 1
    24   14   15 2
    25   14   16 1
    26   16   21 1
    27   16   17 2
    28   17   18 1
    29   17   35 1
    30   18   19 2
    31   18   20 am
    32   20   21 1
    33   20   30 1
    34   21   22 1
    35   21   23 1
    36   23   28 ar
    37   23   24 ar
    38   24   25 ar
    39   24   44 1
    40   25   26 ar
    41   25   45 1
    42   26   27 ar
    43   26   29 1
    44   27   28 ar
    45   27   46 1
    46   28   47 1
    47   30   31 1
    48   30   48 1
    49   30   49 1
    50   31   32 1
    51   31   50 1
    52   31   51 1
    53   32   33 1
    54   32   52 1
    55   32   53 1
    56   33   34 1
    57   34   54 1
    58   34   55 1
    59   34   56 1
@<TRIPOS>MOLECULE
ZINC59219972
   62    66     0     0     0
SMALL
USER_CHARGES

@<TRIPOS>ATOM
      1 C1         -0.0187    1.5258    0.0104 C.3       1 <0>        -0.1513
      2 C2          0.0021   -0.0041    0.0020 C.3       1 <0>         0.0594
      3 O1         -1.3386   -0.4987    0.0122 O.3       1 <0>        -0.3426
      4 C3         -1.4972   -1.8385    0.0065 C.2       1 <0>         0.5501
      5 O2         -0.5224   -2.5663   -0.0067 O.2       1 <0>        -0.4996
      6 C4         -2.8417   -2.4162    0.0162 C.2       1 <0>        -0.1642
      7 C5         -3.5418   -2.7112   -1.2176 C.2       1 <0>        -0.0597
      8 C6         -4.7816   -3.2435   -1.0947 C.2       1 <0>        -0.1601
      9 S1         -5.0549   -3.3699    0.6498 S.3       1 <0>         0.0008
     10 C7         -3.4977   -2.7099    1.2189 C.2       1 <0>         0.1280
     11 N1         -3.0635   -2.5364    2.4847 N.2       1 <0>        -0.4736
     12 C8         -3.8299   -2.8756    3.4930 C.2       1 <0>         0.2912
     13 C9         -3.3593   -2.6875    4.8649 C.2       1 <0>        -0.2180
     14 C10        -4.0359   -2.9960    6.0122 C.2       1 <0>         0.1575
     15 N2         -3.2765   -2.6786    7.0900 N.pl3     1 <0>        -0.4157
     16 C11        -2.0677   -2.1476    6.6885 C.ar      1 <0>         0.0988
     17 C12        -2.0579   -2.1332    5.2844 C.ar      1 <0>        -0.0602
     18 C13        -0.9472   -1.6496    4.5987 C.ar      1 <0>        -0.0693
     19 C14         0.1431   -1.1888    5.3046 C.ar      1 <0>        -0.1446
     20 C15         0.1369   -1.2060    6.6915 C.ar      1 <0>        -0.1116
     21 C16        -0.9597   -1.6737    7.3830 C.ar      1 <0>        -0.1076
     22 C17        -3.6825   -2.8716    8.4843 C.3       1 <0>         0.0224
     23 C18        -4.2783   -1.5934    9.0155 C.2       1 <0>         0.4821
     24 O3         -4.3565   -0.6121    8.2961 O.co2     1 <0>        -0.6686
     25 O4         -4.6821   -1.5405   10.1647 O.co2     1 <0>        -0.6858
     26 C19        -5.7005   -3.6297   -2.2117 C.3       1 <0>         0.1404
     27 N3         -5.1983   -3.0173   -3.4559 N.3       1 <0>        -0.5249
     28 C20        -3.7613   -3.2788   -3.6186 C.3       1 <0>         0.0560
     29 C21        -2.9596   -2.4575   -2.6057 C.3       1 <0>        -0.0577
     30 C22        -5.9555   -3.4950   -4.6206 C.3       1 <0>         0.0946
     31 C23        -7.3783   -3.0066   -4.5295 C.ar      1 <0>        -0.0806
     32 C24        -8.3309   -3.7701   -3.8809 C.ar      1 <0>        -0.1152
     33 C25        -9.6359   -3.3222   -3.7973 C.ar      1 <0>        -0.1203
     34 C26        -9.9884   -2.1106   -4.3619 C.ar      1 <0>        -0.1194
     35 C27        -9.0356   -1.3467   -5.0097 C.ar      1 <0>        -0.1210
     36 C28        -7.7296   -1.7926   -5.0896 C.ar      1 <0>        -0.0965
     37 H1          1.0039    1.9031    0.0027 H         1 <0>         0.0776
     38 H2         -0.5459    1.8868   -0.8726 H         1 <0>         0.0644
     39 H3         -0.5289    1.8773    0.9072 H         1 <0>         0.0690
     40 H4          0.5123   -0.3556   -0.8948 H         1 <0>         0.0638
     41 H5          0.5293   -0.3651    0.8851 H         1 <0>         0.0685
     42 H6         -4.8088   -3.2939    3.3105 H         1 <0>         0.1117
     43 H7         -5.0252   -3.4272    6.0538 H         1 <0>         0.1770
     44 H8         -0.9398   -1.6358    3.5189 H         1 <0>         0.1259
     45 H9          1.0064   -0.8130    4.7755 H         1 <0>         0.1173
     46 H10         0.9970   -0.8432    7.2347 H         1 <0>         0.1212
     47 H11        -0.9536   -1.6843    8.4629 H         1 <0>         0.1178
     48 H12        -4.4240   -3.6686    8.5398 H         1 <0>         0.0949
     49 H13        -2.8122   -3.1427    9.0819 H         1 <0>         0.0911
     50 H14        -5.7161   -4.7146   -2.3163 H         1 <0>         0.0552
     51 H15        -6.7064   -3.2655   -2.0027 H         1 <0>         0.0972
     52 H16        -3.5666   -4.3393   -3.4592 H         1 <0>         0.0425
     53 H17        -3.4561   -3.0049   -4.6285 H         1 <0>         0.0840
     54 H18        -3.0364   -1.3977   -2.8485 H         1 <0>         0.0893
     55 H19        -1.9142   -2.7655   -2.6278 H         1 <0>         0.0801
     56 H20        -5.4979   -3.1128   -5.5331 H         1 <0>         0.0885
     57 H21        -5.9458   -4.5848   -4.6382 H         1 <0>         0.0466
     58 H22        -8.0555   -4.7167   -3.4398 H         1 <0>         0.1183
     59 H23       -10.3803   -3.9189   -3.2913 H         1 <0>         0.1212
     60 H24       -11.0081   -1.7609   -4.2972 H         1 <0>         0.1202
     61 H25        -9.3110   -0.4003   -5.4511 H         1 <0>         0.1212
     62 H26        -6.9844   -1.1941   -5.5924 H         1 <0>         0.1225
@<TRIPOS>BOND
     1    1    2 1
     2    1   37 1
     3    1   38 1
     4    1   39 1
     5    2    3 1
     6    2   40 1
     7    2   41 1
     8    3    4 1
     9    4    5 2
    10    4    6 1
    11    6   10 2
    12    6    7 1
    13    7   29 1
    14    7    8 2
    15    8    9 1
    16    8   26 1
    17    9   10 1
    18   10   11 1
    19   11   12 2
    20   12   13 1
    21   12   42 1
    22   13   17 1
    23   13   14 2
    24   14   15 1
    25   14   43 1
    26   15   16 1
    27   15   22 1
    28   16   21 ar
    29   16   17 ar
    30   17   18 ar
    31   18   19 ar
    32   18   44 1
    33   19   20 ar
    34   19   45 1
    35   20   21 ar
    36   20   46 1
    37   21   47 1
    38   22   23 1
    39   22   48 1
    40   22   49 1
    41   23   24 2
    42   23   25 1
    43   26   27 1
    44   26   50 1
    45   26   51 1
    46   27   28 1
    47   27   30 1
    48   28   29 1
    49   28   52 1
    50   28   53 1
    51   29   54 1
    52   29   55 1
    53   30   31 1
    54   30   56 1
    55   30   57 1
    56   31   36 ar
    57   31   32 ar
    58   32   33 ar
    59   32   58 1
    60   33   34 ar
    61   33   59 1
    62   34   35 ar
    63   34   60 1
    64   35   36 ar
    65   35   61 1
    66   36   62 1
@<TRIPOS>MOLECULE
ZINC06277044
   47    51     0     0     0
SMALL
USER_CHARGES
[2-(trifluoromethyl)phenyl]BLAHcarboxylic acid
@<TRIPOS>ATOM
      1 C1          0.1419    1.1934    0.2338 C.ar      1 <0>        -0.1265
      2 C2          1.2679    1.9902    0.2512 C.ar      1 <0>        -0.1225
      3 C3          2.5448    1.4473    0.2334 C.ar      1 <0>        -0.1013
      4 C4          2.6509    0.0672    0.2003 C.ar      1 <0>        -0.0670
      5 C5          1.5029   -0.7407    0.1623 C.ar      1 <0>        -0.0976
      6 C6          0.2353   -0.1913    0.1837 C.ar      1 <0>        -0.1047
      7 C7          1.9094   -2.1957    0.0699 C.3       1 <0>        -0.0678
      8 C8          3.3291   -2.1166   -0.4943 C.3       1 <0>        -0.1085
      9 H1          3.3002   -1.9722   -1.5743 H         1 <0>         0.0914
     10 C9          3.8376   -0.8188    0.2178 C.3       1 <0>        -0.0048
     11 H2          4.1161   -1.0451    1.2471 H         1 <0>         0.0971
     12 C10         5.0474   -0.4507   -0.5748 C.ar      1 <0>        -0.1442
     13 C11         5.3306    0.8197   -0.9954 C.ar      1 <0>        -0.0863
     14 C12         6.4692    1.0682   -1.7508 C.ar      1 <0>        -0.1779
     15 C13         7.3131    0.0308   -2.0825 C.ar      1 <0>        -0.0485
     16 C14         7.0390   -1.2691   -1.6540 C.ar      1 <0>        -0.1655
     17 C15         5.9000   -1.5257   -0.8690 C.ar      1 <0>         0.1764
     18 N1          5.6747   -2.7943   -0.3782 N.pl3     1 <0>        -0.6210
     19 C16         4.2947   -3.2137   -0.1248 C.3       1 <0>         0.1385
     20 H3          4.1802   -3.4519    0.9327 H         1 <0>         0.0990
     21 C17         3.9900   -4.4406   -0.9451 C.ar      1 <0>        -0.0583
     22 C18         3.2349   -4.3313   -2.0980 C.ar      1 <0>        -0.1113
     23 C19         2.9558   -5.4565   -2.8506 C.ar      1 <0>        -0.0883
     24 C20         3.4317   -6.6914   -2.4504 C.ar      1 <0>        -0.1191
     25 C21         4.1861   -6.8007   -1.2976 C.ar      1 <0>        -0.0734
     26 C22         4.4702   -5.6743   -0.5479 C.ar      1 <0>        -0.1647
     27 C23         5.2985   -5.7926    0.7055 C.3       1 <0>         0.4984
     28 F1          5.7345   -7.1136    0.8535 F         1 <0>        -0.1825
     29 F2          6.4064   -4.9433    0.6141 F         1 <0>        -0.1387
     30 F3          4.5234   -5.4305    1.8125 F         1 <0>        -0.1813
     31 C24         7.9420   -2.3722   -2.0242 C.2       1 <0>         0.4885
     32 O1          8.1216   -3.2950   -1.2541 O.co2     1 <0>        -0.6180
     33 H4         -0.8335    1.6567    0.2550 H         1 <0>         0.1168
     34 H5          1.1527    3.0637    0.2791 H         1 <0>         0.1178
     35 H6          3.4221    2.0771    0.2452 H         1 <0>         0.1319
     36 H7         -0.6472   -0.8135    0.1628 H         1 <0>         0.1257
     37 H8          1.9113   -2.6593    1.0564 H         1 <0>         0.0859
     38 H9          1.2530   -2.7374   -0.6111 H         1 <0>         0.0784
     39 H10         4.6668    1.6321   -0.7391 H         1 <0>         0.1173
     40 H11         6.6925    2.0729   -2.0780 H         1 <0>         0.1141
     41 H12         8.1930    0.2248   -2.6778 H         1 <0>         0.1221
     42 H13         6.1686   -3.4856   -0.9225 H         1 <0>         0.3932
     43 H14         2.8634   -3.3666   -2.4108 H         1 <0>         0.1372
     44 H15         2.3662   -5.3710   -3.7514 H         1 <0>         0.1322
     45 H16         3.2135   -7.5706   -3.0385 H         1 <0>         0.1340
     46 H17         4.5576   -7.7654   -0.9848 H         1 <0>         0.1390
     47 O2          8.5691   -2.3583   -3.2170 O.co2     1 <0>        -0.7554
@<TRIPOS>BOND
     1    1    6 ar
     2    1    2 ar
     3    1   33 1
     4    2    3 ar
     5    2   34 1
     6    3    4 ar
     7    3   35 1
     8    4   10 1
     9    4    5 ar
    10    5    6 ar
    11    5    7 1
    12    6   36 1
    13    7    8 1
    14    7   37 1
    15    7   38 1
    16    8    9 1
    17    8   19 1
    18    8   10 1
    19   10   11 1
    20   10   12 1
    21   12   17 ar
    22   12   13 ar
    23   13   14 ar
    24   13   39 1
    25   14   15 ar
    26   14   40 1
    27   15   16 ar
    28   15   41 1
    29   16   17 ar
    30   16   31 1
    31   17   18 1
    32   18   19 1
    33   18   42 1
    34   19   20 1
    35   19   21 1
    36   21   26 ar
    37   21   22 ar
    38   22   23 ar
    39   22   43 1
    40   23   24 ar
    41   23   44 1
    42   24   25 ar
    43   24   45 1
    44   25   26 ar
    45   25   46 1
    46   26   27 1
    47   27   28 1
    48   27   29 1
    49   27   30 1
    50   31   32 2
    51   31   47 1
@<TRIPOS>MOLECULE
ZINC22651494
   50    52     0     0     0
SMALL
USER_CHARGES
4-[(2-chlorophenyl)sulfamoyl]-N-[2-(1-cyclohexenyl)ethyl]benzamide
@<TRIPOS>ATOM
      1 C1          2.3146    0.2925    0.3929 C.ar      1 <0>        -0.0859
      2 C2          2.1818    1.6652    0.4946 C.ar      1 <0>        -0.1920
      3 C3          0.9293    2.2481    0.4357 C.ar      1 <0>        -0.0892
      4 C4         -0.1944    1.4597    0.2748 C.ar      1 <0>        -0.0763
      5 C5         -0.0638    0.0798    0.1723 C.ar      1 <0>         0.2450
      6 C6          1.1960   -0.5016    0.2320 C.ar      1 <0>        -0.2345
      7 N1         -1.1976   -0.7208    0.0092 N.2       1 <0>        -1.0403
      8 S1         -1.2649   -2.2156    0.7189 S.o2      1 <0>         2.5839
      9 O1         -2.5734   -2.7177    0.4849 O.2       1 <0>        -0.9902
     10 O2         -0.0967   -2.9129    0.3086 O.2       1 <0>        -1.0346
     11 C7         -1.1219   -1.9733    2.4583 C.ar      1 <0>        -0.6286
     12 C8          0.1269   -1.9783    3.0540 C.ar      1 <0>        -0.0356
     13 C9          0.2461   -1.7844    4.4147 C.ar      1 <0>        -0.1121
     14 C10        -0.8973   -1.5935    5.1921 C.ar      1 <0>        -0.1081
     15 C11        -2.1544   -1.5948    4.5856 C.ar      1 <0>        -0.0858
     16 C12        -2.2593   -1.7846    3.2231 C.ar      1 <0>        -0.0326
     17 C13        -0.7773   -1.3902    6.6516 C.2       1 <0>         0.5620
     18 O3         -1.7748   -1.2237    7.3260 O.2       1 <0>        -0.5410
     19 N2          0.4380   -1.3895    7.2342 N.am      1 <0>        -0.7397
     20 C14         0.5568   -1.1881    8.6804 C.3       1 <0>         0.1288
     21 C15         2.0326   -1.2315    9.0818 C.3       1 <0>        -0.1000
     22 C16         2.1549   -1.0243   10.5695 C.2       1 <0>        -0.1150
     23 C17         2.2258   -2.0733   11.3246 C.2       1 <0>        -0.1527
     24 C18         2.3402   -2.0265   12.8202 C.3       1 <0>        -0.0936
     25 C19         2.7823   -0.6329   13.2716 C.3       1 <0>        -0.1227
     26 C20         1.8880    0.4064   12.5838 C.3       1 <0>        -0.1214
     27 C21         2.1930    0.3853   11.0828 C.3       1 <0>        -0.0842
     28 Cl1        -1.7661    2.1925    0.1938 Cl        1 <0>        -0.0876
     29 H1          3.2945   -0.1593    0.4389 H         1 <0>         0.1084
     30 H2          3.0584    2.2835    0.6199 H         1 <0>         0.1096
     31 H3          0.8290    3.3205    0.5154 H         1 <0>         0.1137
     32 H4          1.3010   -1.5735    0.1523 H         1 <0>         0.1525
     33 H5          1.0105   -2.1303    2.4519 H         1 <0>         0.1396
     34 H6          1.2217   -1.7845    4.8779 H         1 <0>         0.1245
     35 H7         -3.0429   -1.4472    5.1814 H         1 <0>         0.1357
     36 H8         -3.2314   -1.7854    2.7525 H         1 <0>         0.1411
     37 H9          1.3407   -1.5401    6.6239 H         1 <0>         0.4207
     38 H10         0.1319   -0.2101    8.9505 H         1 <0>         0.0670
     39 H11         0.0099   -1.9837    9.2076 H         1 <0>         0.0661
     40 H12         2.4574   -2.2095    8.8117 H         1 <0>         0.0753
     41 H13         2.5795   -0.4359    8.5546 H         1 <0>         0.0774
     42 H14         2.2035   -3.0770   10.8751 H         1 <0>         0.1052
     43 H15         1.3635   -2.2582   13.2701 H         1 <0>         0.0729
     44 H16         3.0826   -2.7662   13.1545 H         1 <0>         0.0701
     45 H17         2.6810   -0.5520   14.3639 H         1 <0>         0.0630
     46 H18         3.8328   -0.4716   12.9879 H         1 <0>         0.0633
     47 H19         0.8316    0.1536   12.7577 H         1 <0>         0.0650
     48 H20         2.0994    1.4034   12.9977 H         1 <0>         0.0652
     49 H21         3.1926    0.8111   10.9112 H         1 <0>         0.0743
     50 H22         1.4415    0.9889   10.5529 H         1 <0>         0.0736
@<TRIPOS>BOND
     1    1    6 ar
     2    1    2 ar
     3    1   29 1
     4    2    3 ar
     5    2   30 1
     6    3    4 ar
     7    3   31 1
     8    4    5 ar
     9    4   28 1
    10    5    6 ar
    11    5    7 1
    12    6   32 1
    13    7    8 1
    14    8    9 2
    15    8   10 2
    16    8   11 1
    17   11   16 ar
    18   11   12 ar
    19   12   13 ar
    20   12   33 1
    21   13   14 ar
    22   13   34 1
    23   14   15 ar
    24   14   17 1
    25   15   16 ar
    26   15   35 1
    27   16   36 1
    28   17   18 2
    29   17   19 am
    30   19   20 1
    31   19   37 1
    32   20   21 1
    33   20   38 1
    34   20   39 1
    35   21   22 1
    36   21   40 1
    37   21   41 1
    38   22   27 1
    39   22   23 2
    40   23   24 1
    41   23   42 1
    42   24   25 1
    43   24   43 1
    44   24   44 1
    45   25   26 1
    46   25   45 1
    47   25   46 1
    48   26   27 1
    49   26   47 1
    50   26   48 1
    51   27   49 1
    52   27   50 1
@<TRIPOS>MOLECULE
ZINC13255043
   57    59     0     0     0
SMALL
USER_CHARGES

@<TRIPOS>ATOM
      1 C1         -0.0187    1.5258    0.0104 C.3       1 <0>        -0.1209
      2 C2          0.0021   -0.0041    0.0020 C.3       1 <0>        -0.0898
      3 C3          0.7421   -0.5109    1.2415 C.3       1 <0>        -0.1080
      4 C4          0.0367   -0.0249    2.4814 C.2       1 <0>         0.5013
      5 O1         -0.9598    0.6595    2.3833 O.2       1 <0>        -0.4457
      6 N1          0.5132   -0.3508    3.6993 N.am      1 <0>        -0.6289
      7 C5         -0.1365    0.0969    4.8413 C.2       1 <0>         0.0785
      8 C6          0.2094   -0.1323    6.1628 C.2       1 <0>        -0.1675
      9 C7         -0.6415    0.4525    7.1836 C.2       1 <0>        -0.0543
     10 C8         -1.6840    1.1599    6.6951 C.2       1 <0>        -0.2414
     11 S1         -1.5180    1.0467    4.9377 S.3       1 <0>         0.3270
     12 C9         -2.7340    1.8770    7.4860 C.3       1 <0>        -0.0299
     13 C10        -2.6691    1.3779    8.9371 C.3       1 <0>        -0.0707
     14 H1         -3.0549    0.3598    8.9906 H         1 <0>         0.0762
     15 C11        -1.2108    1.3989    9.4038 C.3       1 <0>        -0.1150
     16 C12        -0.4167    0.3081    8.6815 C.3       1 <0>        -0.0581
     17 C13        -3.5092    2.2919    9.8314 C.3       1 <0>        -0.0626
     18 C14        -4.9624    2.2779    9.3530 C.3       1 <0>        -0.1458
     19 C15        -3.4430    1.7928   11.2762 C.3       1 <0>        -0.1438
     20 C16        -2.9622    3.7189    9.7592 C.3       1 <0>        -0.1478
     21 C17         1.3585   -0.9141    6.5080 C.1       1 <0>         0.2811
     22 N2          2.2700   -1.5342    6.7818 N.1       1 <0>        -0.4462
     23 C18         0.7074   -0.4901   -1.2379 C.ar      1 <0>        -0.0227
     24 C19         1.8400   -1.2748   -1.1260 C.ar      1 <0>        -0.1325
     25 C20         2.4870   -1.7206   -2.2634 C.ar      1 <0>        -0.1215
     26 C21         2.0013   -1.3821   -3.5125 C.ar      1 <0>        -0.1424
     27 C22         0.8682   -0.5981   -3.6243 C.ar      1 <0>        -0.1188
     28 C23         0.2187   -0.1558   -2.4870 C.ar      1 <0>        -0.1097
     29 C24        -1.4117   -0.5257    0.0127 C.2       1 <0>         0.5167
     30 O2         -2.3491    0.2539    0.0259 O.co2     1 <0>        -0.6691
     31 O3         -1.6182   -1.7273    0.0082 O.co2     1 <0>        -0.6985
     32 H2          1.0039    1.9031    0.0027 H         1 <0>         0.0269
     33 H3         -0.5459    1.8868   -0.8726 H         1 <0>         0.0545
     34 H4         -0.5289    1.8773    0.9072 H         1 <0>         0.0809
     35 H5          0.7568   -1.6008    1.2356 H         1 <0>         0.1050
     36 H6          1.7647   -0.1336    1.2338 H         1 <0>         0.0899
     37 H7          1.3102   -0.8981    3.7778 H         1 <0>         0.4161
     38 H8         -2.5462    2.9503    7.4579 H         1 <0>         0.0851
     39 H9         -3.7180    1.6645    7.0680 H         1 <0>         0.0815
     40 H10        -0.7735    2.3723    9.1816 H         1 <0>         0.0688
     41 H11        -1.1722    1.2230   10.4789 H         1 <0>         0.0714
     42 H12        -0.7606   -0.6727    9.0100 H         1 <0>         0.0760
     43 H13         0.6443    0.4198    8.9045 H         1 <0>         0.0711
     44 H14        -5.3521    1.2613    9.4044 H         1 <0>         0.0551
     45 H15        -5.5609    2.9291    9.9901 H         1 <0>         0.0527
     46 H16        -5.0096    2.6335    8.3237 H         1 <0>         0.0601
     47 H17        -2.4077    1.8027   11.6169 H         1 <0>         0.0580
     48 H18        -4.0415    2.4439   11.9133 H         1 <0>         0.0527
     49 H19        -3.8327    0.7761   11.3276 H         1 <0>         0.0542
     50 H20        -3.0093    4.0745    8.7299 H         1 <0>         0.0606
     51 H21        -3.5607    4.3701   10.3963 H         1 <0>         0.0518
     52 H22        -1.9269    3.7289   10.1000 H         1 <0>         0.0574
     53 H23         2.2195   -1.5393   -0.1501 H         1 <0>         0.1175
     54 H24         3.3722   -2.3331   -2.1760 H         1 <0>         0.1139
     55 H25         2.5072   -1.7298   -4.4011 H         1 <0>         0.1129
     56 H26         0.4889   -0.3333   -4.6002 H         1 <0>         0.1155
     57 H27        -0.6686    0.4536   -2.5743 H         1 <0>         0.1209
@<TRIPOS>BOND
     1    1    2 1
     2    1   32 1
     3    1   33 1
     4    1   34 1
     5    2    3 1
     6    2   23 1
     7    2   29 1
     8    3    4 1
     9    3   35 1
    10    3   36 1
    11    4    5 2
    12    4    6 am
    13    6    7 1
    14    6   37 1
    15    7   11 1
    16    7    8 2
    17    8    9 1
    18    8   21 1
    19    9   16 1
    20    9   10 2
    21   10   11 1
    22   10   12 1
    23   12   13 1
    24   12   38 1
    25   12   39 1
    26   13   14 1
    27   13   15 1
    28   13   17 1
    29   15   16 1
    30   15   40 1
    31   15   41 1
    32   16   42 1
    33   16   43 1
    34   17   18 1
    35   17   19 1
    36   17   20 1
    37   18   44 1
    38   18   45 1
    39   18   46 1
    40   19   47 1
    41   19   48 1
    42   19   49 1
    43   20   50 1
    44   20   51 1
    45   20   52 1
    46   21   22 3
    47   23   28 ar
    48   23   24 ar
    49   24   25 ar
    50   24   53 1
    51   25   26 ar
    52   25   54 1
    53   26   27 ar
    54   26   55 1
    55   27   28 ar
    56   27   56 1
    57   28   57 1
    58   29   30 2
    59   29   31 1
@<TRIPOS>MOLECULE
ZINC39898421
   47    50     0     0     0
SMALL
USER_CHARGES

@<TRIPOS>ATOM
      1 C1         -0.0187    1.5258    0.0104 C.3       1 <0>        -0.1530
      2 C2          0.0021   -0.0041    0.0020 C.3       1 <0>        -0.1215
      3 C3          0.7182   -0.4975   -1.2568 C.3       1 <0>        -0.1397
      4 C4          0.7390   -2.0273   -1.2652 C.3       1 <0>         0.1370
      5 N1          1.4247   -2.4998   -2.4705 N.am      1 <0>        -0.5943
      6 C5          0.7919   -2.7825   -3.7654 C.3       1 <0>         0.2470
      7 H1          0.3260   -1.8797   -4.1604 H         1 <0>         0.1136
      8 C6          1.8974   -3.2367   -4.6788 C.2       1 <0>        -0.1733
      9 C7          2.2673   -3.6782   -5.9538 C.2       1 <0>         0.1136
     10 N2          3.5692   -3.8868   -5.9366 N.2       1 <0>        -0.2208
     11 N3          4.0575   -3.6209   -4.7776 N.pl3     1 <0>        -0.3310
     12 H2          4.9934   -3.7018   -4.5356 H         1 <0>         0.4549
     13 C8          3.0631   -3.2068   -3.9377 C.2       1 <0>        -0.0582
     14 C9          2.7428   -2.7436   -2.5829 C.2       1 <0>         0.5982
     15 O1          3.5537   -2.6028   -1.6874 O.2       1 <0>        -0.5130
     16 C10         1.3612   -3.8758   -7.1124 C.ar      1 <0>        -0.0277
     17 C11        -0.0002   -3.6097   -6.9886 C.ar      1 <0>        -0.0859
     18 C12        -0.8394   -3.7947   -8.0700 C.ar      1 <0>        -0.0430
     19 C13        -0.3315   -4.2446   -9.2771 C.ar      1 <0>        -0.0846
     20 C14         1.0180   -4.5112   -9.4093 C.ar      1 <0>        -0.1323
     21 C15         1.8713   -4.3241   -8.3337 C.ar      1 <0>         0.1394
     22 O2          3.1992   -4.5808   -8.4646 O.3       1 <0>        -0.4779
     23 Cl1        -2.5363   -3.4628   -7.9151 Cl        1 <0>        -0.0604
     24 C16        -0.2374   -3.8725   -3.6127 C.ar      1 <0>        -0.0940
     25 C17         0.0183   -4.9541   -2.7905 C.ar      1 <0>        -0.0817
     26 C18        -0.9254   -5.9541   -2.6501 C.ar      1 <0>        -0.1059
     27 C19        -2.1261   -5.8725   -3.3325 C.ar      1 <0>        -0.0260
     28 C20        -2.3815   -4.7899   -4.1552 C.ar      1 <0>        -0.1000
     29 C21        -1.4393   -3.7877   -4.2904 C.ar      1 <0>        -0.0955
     30 Cl2        -3.3117   -7.1285   -3.1570 Cl        1 <0>        -0.0634
     31 H3          1.0039    1.9031    0.0027 H         1 <0>         0.0545
     32 H4         -0.5459    1.8868   -0.8726 H         1 <0>         0.0544
     33 H5         -0.5289    1.8773    0.9072 H         1 <0>         0.0566
     34 H6          0.5293   -0.3651    0.8851 H         1 <0>         0.0654
     35 H7         -1.0205   -0.3814    0.0098 H         1 <0>         0.0650
     36 H8          0.1910   -0.1364   -2.1398 H         1 <0>         0.0679
     37 H9          1.7408   -0.1202   -1.2645 H         1 <0>         0.0696
     38 H10         1.2661   -2.3884   -0.3821 H         1 <0>         0.0919
     39 H11        -0.2836   -2.4046   -1.2575 H         1 <0>         0.0898
     40 H12        -0.3993   -3.2594   -6.0482 H         1 <0>         0.1450
     41 H13        -0.9929   -4.3880  -10.1188 H         1 <0>         0.1418
     42 H14         1.4086   -4.8619  -10.3531 H         1 <0>         0.1442
     43 H15         3.4466   -5.4913   -8.2527 H         1 <0>         0.3938
     44 H16         0.9558   -5.0178   -2.2581 H         1 <0>         0.1274
     45 H17        -0.7254   -6.7992   -2.0080 H         1 <0>         0.1361
     46 H18        -3.3185   -4.7259   -4.6884 H         1 <0>         0.1387
     47 H19        -1.6405   -2.9402   -4.9289 H         1 <0>         0.1371
@<TRIPOS>BOND
     1    1    2 1
     2    1   31 1
     3    1   32 1
     4    1   33 1
     5    2    3 1
     6    2   34 1
     7    2   35 1
     8    3    4 1
     9    3   36 1
    10    3   37 1
    11    4    5 1
    12    4   38 1
    13    4   39 1
    14    5   14 am
    15    5    6 1
    16    6    7 1
    17    6    8 1
    18    6   24 1
    19    8   13 2
    20    8    9 1
    21    9   10 2
    22    9   16 1
    23   10   11 1
    24   11   12 1
    25   11   13 1
    26   13   14 1
    27   14   15 2
    28   16   21 ar
    29   16   17 ar
    30   17   18 ar
    31   17   40 1
    32   18   19 ar
    33   18   23 1
    34   19   20 ar
    35   19   41 1
    36   20   21 ar
    37   20   42 1
    38   21   22 1
    39   22   43 1
    40   24   29 ar
    41   24   25 ar
    42   25   26 ar
    43   25   44 1
    44   26   27 ar
    45   26   45 1
    46   27   28 ar
    47   27   30 1
    48   28   29 ar
    49   28   46 1
    50   29   47 1
@<TRIPOS>MOLECULE
ZINC36718841
   53    55     0     0     0
SMALL
USER_CHARGES

@<TRIPOS>ATOM
      1 C1          0.6779    0.0751    1.0119 C.3       1 <0>        -0.1445
      2 C2          0.1148   -1.2486    0.4909 C.3       1 <0>        -0.0561
      3 C3          0.3469   -2.3463    1.5313 C.3       1 <0>        -0.1430
      4 C4         -1.3634   -1.1009    0.2379 C.ar      1 <0>        -0.1082
      5 C5         -2.2243   -0.8596    1.2907 C.ar      1 <0>        -0.0969
      6 C6         -3.5808   -0.7244    1.0594 C.ar      1 <0>        -0.1384
      7 C7         -4.0802   -0.8297   -0.2260 C.ar      1 <0>        -0.1055
      8 C8         -3.2250   -1.0708   -1.2830 C.ar      1 <0>        -0.1326
      9 C9         -1.8608   -1.2014   -1.0549 C.ar      1 <0>         0.1509
     10 N1         -0.9914   -1.4399   -2.1235 N.am      1 <0>        -0.6661
     11 C10        -1.4455   -2.0430   -3.2400 C.2       1 <0>         0.5522
     12 O1         -2.6268   -2.3156   -3.3469 O.2       1 <0>        -0.5242
     13 C11        -0.5178   -2.3700   -4.3242 C.2       1 <0>        -0.2274
     14 C12        -0.9721   -2.9734   -5.4411 C.2       1 <0>         0.0040
     15 C13        -0.0392   -3.3023   -6.5313 C.ar      1 <0>        -0.0531
     16 C14         1.3197   -2.9959   -6.4098 C.ar      1 <0>        -0.1224
     17 C15         2.1874   -3.3076   -7.4352 C.ar      1 <0>        -0.0269
     18 C16         1.7163   -3.9221   -8.5824 C.ar      1 <0>        -0.5968
     19 C17         0.3727   -4.2282   -8.7103 C.ar      1 <0>        -0.0269
     20 C18        -0.5065   -3.9281   -7.6913 C.ar      1 <0>        -0.1147
     21 S1          2.8330   -4.3164   -9.8870 S.o2      1 <0>         2.5984
     22 O2          2.0584   -4.3913  -11.0759 O.2       1 <0>        -1.0265
     23 O3          3.9405   -3.4360   -9.7536 O.2       1 <0>        -1.0269
     24 N2          3.4047   -5.8434   -9.5975 N.2       1 <0>        -1.0702
     25 C19         4.3196   -6.4258  -10.4790 C.ar      1 <0>         0.2868
     26 C20         4.7547   -5.7231  -11.5951 C.ar      1 <0>        -0.2564
     27 C21         5.6593   -6.3013  -12.4641 C.ar      1 <0>        -0.0628
     28 C22         6.1317   -7.5788  -12.2245 C.ar      1 <0>        -0.2178
     29 C23         5.7011   -8.2818  -11.1144 C.ar      1 <0>        -0.0706
     30 C24         4.8004   -7.7073  -10.2376 C.ar      1 <0>        -0.0937
     31 Cl1         4.2650   -8.5877   -8.8405 Cl        1 <0>        -0.0918
     32 H1          1.7471   -0.0318    1.1950 H         1 <0>         0.0597
     33 H2          0.5126    0.8571    0.2708 H         1 <0>         0.0554
     34 H3          0.1752    0.3432    1.9412 H         1 <0>         0.0584
     35 H4          0.6175   -1.5167   -0.4383 H         1 <0>         0.0717
     36 H5         -0.1557   -2.0782    2.4606 H         1 <0>         0.0581
     37 H6         -0.0542   -3.2893    1.1601 H         1 <0>         0.0564
     38 H7          1.4161   -2.4531    1.7143 H         1 <0>         0.0592
     39 H8         -1.8376   -0.7768    2.2957 H         1 <0>         0.1232
     40 H9         -4.2519   -0.5365    1.8845 H         1 <0>         0.1204
     41 H10        -5.1402   -0.7235   -0.4033 H         1 <0>         0.1233
     42 H11        -3.6156   -1.1536   -2.2865 H         1 <0>         0.1535
     43 H12        -0.0614   -1.1712   -2.0614 H         1 <0>         0.4117
     44 H13         0.5304   -2.1281   -4.2293 H         1 <0>         0.1346
     45 H14        -2.0203   -3.2154   -5.5359 H         1 <0>         0.1394
     46 H15         1.6887   -2.5160   -5.5154 H         1 <0>         0.1308
     47 H16         3.2372   -3.0712   -7.3431 H         1 <0>         0.1410
     48 H17         0.0125   -4.7071   -9.6088 H         1 <0>         0.1418
     49 H18        -1.5540   -4.1716   -7.7906 H         1 <0>         0.1333
     50 H19         4.3859   -4.7257  -11.7836 H         1 <0>         0.1040
     51 H20         5.9979   -5.7551  -13.3321 H         1 <0>         0.1076
     52 H21         6.8385   -8.0284  -12.9062 H         1 <0>         0.1102
     53 H22         6.0717   -9.2794  -10.9305 H         1 <0>         0.1145
@<TRIPOS>BOND
     1    1    2 1
     2    1   32 1
     3    1   33 1
     4    1   34 1
     5    2    3 1
     6    2    4 1
     7    2   35 1
     8    3   36 1
     9    3   37 1
    10    3   38 1
    11    4    9 ar
    12    4    5 ar
    13    5    6 ar
    14    5   39 1
    15    6    7 ar
    16    6   40 1
    17    7    8 ar
    18    7   41 1
    19    8    9 ar
    20    8   42 1
    21    9   10 1
    22   10   11 am
    23   10   43 1
    24   11   12 2
    25   11   13 1
    26   13   14 2
    27   13   44 1
    28   14   15 1
    29   14   45 1
    30   15   20 ar
    31   15   16 ar
    32   16   17 ar
    33   16   46 1
    34   17   18 ar
    35   17   47 1
    36   18   19 ar
    37   18   21 1
    38   19   20 ar
    39   19   48 1
    40   20   49 1
    41   21   22 2
    42   21   23 2
    43   21   24 1
    44   24   25 1
    45   25   30 ar
    46   25   26 ar
    47   26   27 ar
    48   26   50 1
    49   27   28 ar
    50   27   51 1
    51   28   29 ar
    52   28   52 1
    53   29   30 ar
    54   29   53 1
    55   30   31 1
@<TRIPOS>MOLECULE
ZINC00661440
   49    53     0     0     0
SMALL
USER_CHARGES
9-amino-4-benzo[1,3]dioxol-5-yl-N-(3-ethylphenyl)-7-thia-5-azabicyclo[4.3.0]nona-2,4,8,10-tetraene-8-carboxamide
@<TRIPOS>ATOM
      1 C1          3.1946    0.7949    0.7136 C.3       1 <0>        -0.1470
      2 C2          1.9526    1.0348    1.5744 C.3       1 <0>        -0.0847
      3 C3          0.9185    1.7777    0.7683 C.ar      1 <0>        -0.0632
      4 C4         -0.0145    1.0757    0.0270 C.ar      1 <0>        -0.1339
      5 C5         -0.9685    1.7534   -0.7094 C.ar      1 <0>        -0.0962
      6 C6         -0.9893    3.1346   -0.7110 C.ar      1 <0>        -0.1515
      7 C7         -0.0506    3.8425    0.0281 C.ar      1 <0>         0.1527
      8 C8          0.9066    3.1585    0.7669 C.ar      1 <0>        -0.1175
      9 N1         -0.0691    5.2406    0.0290 N.am      1 <0>        -0.6701
     10 C9          1.0853    5.9298    0.1230 C.2       1 <0>         0.6231
     11 O1          2.1502    5.3387    0.1102 O.2       1 <0>        -0.5358
     12 C10         1.0602    7.3414    0.2366 C.2       1 <0>        -0.3535
     13 C11         2.1257    8.2087    0.3477 C.2       1 <0>         0.3119
     14 C12         1.8493    9.6326    0.4480 C.ar      1 <0>        -0.1933
     15 C13         2.7704   10.7058    0.5650 C.ar      1 <0>        -0.0031
     16 C14         2.2994   11.9804    0.6530 C.ar      1 <0>        -0.1761
     17 C15         0.9236   12.2305    0.6285 C.ar      1 <0>         0.2363
     18 N2          0.0639   11.2250    0.5185 N.ar      1 <0>        -0.4478
     19 C16         0.4787    9.9805    0.4315 C.ar      1 <0>         0.1419
     20 S1         -0.3568    8.4211    0.2779 S.3       1 <0>         0.1171
     21 C17         0.4241   13.6220    0.7245 C.ar      1 <0>        -0.0535
     22 C18         1.3233   14.6881    0.7342 C.ar      1 <0>        -0.0767
     23 C19         0.8572   15.9830    0.8236 C.ar      1 <0>        -0.1047
     24 C20        -0.5056   16.2302    0.9037 C.ar      1 <0>         0.0548
     25 C21        -1.4092   15.1682    0.8940 C.ar      1 <0>         0.0266
     26 C22        -0.9465   13.8687    0.7996 C.ar      1 <0>        -0.0535
     27 O2         -2.6750   15.6722    0.9828 O.3       1 <0>        -0.3047
     28 C23        -2.5593   17.0645    0.6347 C.3       1 <0>         0.2120
     29 O3         -1.2066   17.3972    0.9987 O.3       1 <0>        -0.3053
     30 N3          3.4304    7.7348    0.3595 N.pl3     1 <0>        -0.8215
     31 H1          2.9220    0.2039   -0.1607 H         1 <0>         0.0554
     32 H2          3.6039    1.7525    0.3917 H         1 <0>         0.0578
     33 H3          3.9425    0.2576    1.2966 H         1 <0>         0.0576
     34 H4          2.2252    1.6258    2.4488 H         1 <0>         0.0711
     35 H5          1.5433    0.0772    1.8963 H         1 <0>         0.0727
     36 H6         -0.0007   -0.0042    0.0268 H         1 <0>         0.1223
     37 H7         -1.6985    1.2023   -1.2837 H         1 <0>         0.1266
     38 H8         -1.7345    3.6633   -1.2867 H         1 <0>         0.1249
     39 H9          1.6380    3.7060    1.3427 H         1 <0>         0.1340
     40 H10        -0.9128    5.7146   -0.0380 H         1 <0>         0.4098
     41 H11         3.8330   10.5137    0.5844 H         1 <0>         0.1425
     42 H12         2.9928   12.8036    0.7420 H         1 <0>         0.1517
     43 H13         2.3849   14.4995    0.6720 H         1 <0>         0.1466
     44 H14         1.5552   16.8071    0.8309 H         1 <0>         0.1445
     45 H15        -1.6454   13.0455    0.7883 H         1 <0>         0.1503
     46 H16        -2.7138   17.2059   -0.4350 H         1 <0>         0.0885
     47 H17        -3.2681   17.6626    1.2074 H         1 <0>         0.1358
     48 H18         3.6012    6.7826    0.2886 H         1 <0>         0.4246
     49 H19         4.1713    8.3559    0.4385 H         1 <0>         0.4003
@<TRIPOS>BOND
     1    1    2 1
     2    1   31 1
     3    1   32 1
     4    1   33 1
     5    2    3 1
     6    2   34 1
     7    2   35 1
     8    3    8 ar
     9    3    4 ar
    10    4    5 ar
    11    4   36 1
    12    5    6 ar
    13    5   37 1
    14    6    7 ar
    15    6   38 1
    16    7    8 ar
    17    7    9 1
    18    8   39 1
    19    9   10 am
    20    9   40 1
    21   10   11 2
    22   10   12 1
    23   12   20 1
    24   12   13 2
    25   13   14 1
    26   13   30 1
    27   14   19 ar
    28   14   15 ar
    29   15   16 ar
    30   15   41 1
    31   16   17 ar
    32   16   42 1
    33   17   18 ar
    34   17   21 1
    35   18   19 ar
    36   19   20 1
    37   21   26 ar
    38   21   22 ar
    39   22   23 ar
    40   22   43 1
    41   23   24 ar
    42   23   44 1
    43   24   29 1
    44   24   25 ar
    45   25   26 ar
    46   25   27 1
    47   26   45 1
    48   27   28 1
    49   28   29 1
    50   28   46 1
    51   28   47 1
    52   30   48 1
    53   30   49 1
@<TRIPOS>MOLECULE
ZINC12381761
   56    60     0     0     0
SMALL
USER_CHARGES
tert-butyl-(2-hydroxyethylamino)BLAHdione
@<TRIPOS>ATOM
      1 C1         -3.6414    7.6363    0.0070 C.3       1 <0>        -0.1463
      2 C2         -3.8616    6.1222   -0.0029 C.3       1 <0>        -0.0244
      3 C3         -4.6419    5.7285   -1.2587 C.3       1 <0>        -0.1409
      4 C4         -4.6554    5.7141    1.2397 C.3       1 <0>        -0.1410
      5 C5         -2.5278    5.4206    0.0002 C.ar      1 <0>        -0.0730
      6 C6         -1.3601    6.1615    0.0108 C.ar      1 <0>        -0.0980
      7 C7         -0.1338    5.5233    0.0137 C.ar      1 <0>        -0.1352
      8 C8         -0.0754    4.1379    0.0060 C.ar      1 <0>         0.1177
      9 C9         -1.2517    3.3900   -0.0046 C.ar      1 <0>         0.0628
     10 C10        -2.4767    4.0390   -0.0079 C.ar      1 <0>        -0.0907
     11 O1         -1.2028    2.0335   -0.0173 O.3       1 <0>        -0.2387
     12 C11        -0.0167    1.3764   -0.0087 C.ar      1 <0>         0.1556
     13 C12         0.0020   -0.0040   -0.0161 C.ar      1 <0>        -0.1734
     14 C13         1.2120   -0.6973   -0.0140 C.ar      1 <0>         0.2877
     15 C14         2.4240    0.0060   -0.0038 C.ar      1 <0>        -0.2213
     16 C15         2.4110    1.4210    0.0044 C.ar      1 <0>        -0.1229
     17 C16         1.1910    2.0985    0.0018 C.ar      1 <0>         0.1422
     18 N1          1.1622    3.4847    0.0093 N.pl3     1 <0>        -0.6515
     19 H1          1.9876    3.9942    0.0170 H         1 <0>         0.4316
     20 C17         3.6763    2.1679    0.0156 C.2       1 <0>         0.4484
     21 O2          3.6660    3.3845    0.0225 O.2       1 <0>        -0.4556
     22 C18         4.9609    1.4389    0.0179 C.ar      1 <0>        -0.1168
     23 C19         6.1657    2.1379    0.0278 C.ar      1 <0>        -0.0684
     24 C20         7.3629    1.4470    0.0290 C.ar      1 <0>        -0.1016
     25 C21         7.3739    0.0630    0.0212 C.ar      1 <0>        -0.0972
     26 C22         6.1878   -0.6469    0.0114 C.ar      1 <0>        -0.0714
     27 C23         4.9721    0.0327    0.0097 C.ar      1 <0>        -0.1087
     28 C24         3.6993   -0.7172   -0.0022 C.2       1 <0>         0.4476
     29 O3          3.7095   -1.9343   -0.0088 O.2       1 <0>        -0.4595
     30 N2          1.2158   -2.0828   -0.0214 N.pl3     1 <0>        -0.7061
     31 C25        -0.0449   -2.8194    0.0980 C.3       1 <0>         0.1084
     32 C26         0.2375   -4.3227    0.0628 C.3       1 <0>         0.0646
     33 O4          1.0010   -4.6911    1.2132 O.3       1 <0>        -0.5683
     34 H2         -3.0759    7.9270   -0.8783 H         1 <0>         0.0601
     35 H3         -4.6061    8.1437    0.0047 H         1 <0>         0.0607
     36 H4         -3.0855    7.9167    0.9016 H         1 <0>         0.0602
     37 H5         -4.7988    4.6499   -1.2658 H         1 <0>         0.0576
     38 H6         -5.6066    6.2360   -1.2609 H         1 <0>         0.0605
     39 H7         -4.0764    6.0193   -2.1440 H         1 <0>         0.0576
     40 H8         -4.0995    5.9946    2.1344 H         1 <0>         0.0577
     41 H9         -5.6201    6.2215    1.2375 H         1 <0>         0.0605
     42 H10        -4.8122    4.6355    1.2326 H         1 <0>         0.0576
     43 H11        -1.4064    7.2405    0.0172 H         1 <0>         0.1380
     44 H12         0.7775    6.1030    0.0223 H         1 <0>         0.1343
     45 H13        -3.3916    3.4651   -0.0165 H         1 <0>         0.1386
     46 H14        -0.9287   -0.5518   -0.0239 H         1 <0>         0.1520
     47 H15         6.1645    3.2179    0.0342 H         1 <0>         0.1431
     48 H16         8.2960    1.9907    0.0363 H         1 <0>         0.1380
     49 H17         8.3155   -0.4658    0.0226 H         1 <0>         0.1380
     50 H18         6.2039   -1.7267    0.0047 H         1 <0>         0.1440
     51 H19         2.0532   -2.5651   -0.1057 H         1 <0>         0.4241
     52 H20        -0.5279   -2.5624    1.0408 H         1 <0>         0.0757
     53 H21        -0.7010   -2.5534   -0.7307 H         1 <0>         0.0815
     54 H22        -0.7054   -4.8696    0.0621 H         1 <0>         0.0658
     55 H23         0.7991   -4.5658   -0.8392 H         1 <0>         0.0548
     56 H24         1.2172   -5.6326    1.2568 H         1 <0>         0.3840
@<TRIPOS>BOND
     1    1    2 1
     2    1   34 1
     3    1   35 1
     4    1   36 1
     5    2    3 1
     6    2    4 1
     7    2    5 1
     8    3   37 1
     9    3   38 1
    10    3   39 1
    11    4   40 1
    12    4   41 1
    13    4   42 1
    14    5   10 ar
    15    5    6 ar
    16    6    7 ar
    17    6   43 1
    18    7    8 ar
    19    7   44 1
    20    8   18 1
    21    8    9 ar
    22    9   10 ar
    23    9   11 1
    24   10   45 1
    25   11   12 1
    26   12   17 ar
    27   12   13 ar
    28   13   14 ar
    29   13   46 1
    30   14   15 ar
    31   14   30 1
    32   15   28 1
    33   15   16 ar
    34   16   17 ar
    35   16   20 1
    36   17   18 1
    37   18   19 1
    38   20   21 2
    39   20   22 1
    40   22   27 ar
    41   22   23 ar
    42   23   24 ar
    43   23   47 1
    44   24   25 ar
    45   24   48 1
    46   25   26 ar
    47   25   49 1
    48   26   27 ar
    49   26   50 1
    50   27   28 1
    51   28   29 2
    52   30   31 1
    53   30   51 1
    54   31   32 1
    55   31   52 1
    56   31   53 1
    57   32   33 1
    58   32   54 1
    59   32   55 1
    60   33   56 1
@<TRIPOS>MOLECULE
ZINC33251652
   38    40     0     0     0
SMALL
USER_CHARGES
[4-amino-2-(2-methoxyanilino)thiazol-5-yl]-(4-bromophenyl)methanone
@<TRIPOS>ATOM
      1 C1         -1.8675    1.0258   -0.6903 C.3       1 <0>         0.0271
      2 O1         -2.2314    1.4928    0.6103 O.3       1 <0>        -0.3260
      3 C2         -2.3434    2.8381    0.7742 C.ar      1 <0>         0.0965
      4 C3         -2.1084    3.6896   -0.2929 C.ar      1 <0>        -0.1842
      5 C4         -2.2235    5.0571   -0.1250 C.ar      1 <0>        -0.0998
      6 C5         -2.5732    5.5794    1.1067 C.ar      1 <0>        -0.1290
      7 C6         -2.8086    4.7370    2.1766 C.ar      1 <0>        -0.1265
      8 C7         -2.7006    3.3632    2.0144 C.ar      1 <0>         0.1251
      9 N1         -2.9450    2.5073    3.0951 N.pl3     1 <0>        -0.5922
     10 C8         -3.2721    3.0292    4.3263 C.2       1 <0>         0.3946
     11 N2         -3.4661    4.2960    4.6614 N.2       1 <0>        -0.6328
     12 C9         -3.7804    4.6430    5.8862 C.2       1 <0>         0.5009
     13 C10        -3.8919    3.6173    6.8368 C.2       1 <0>        -0.4424
     14 S1         -3.5247    2.1907    5.8252 S.3       1 <0>         0.0900
     15 C11        -4.2051    3.6914    8.2068 C.2       1 <0>         0.4926
     16 O2         -4.3048    4.7778    8.7516 O.2       1 <0>        -0.4949
     17 C12        -4.4134    2.4510    8.9864 C.ar      1 <0>        -0.1300
     18 C13        -4.2786    2.4655   10.3754 C.ar      1 <0>        -0.0602
     19 C14        -4.4801    1.3076   11.0972 C.ar      1 <0>        -0.0983
     20 C15        -4.8038    0.1296   10.4453 C.ar      1 <0>        -0.0708
     21 C16        -4.9329    0.1077    9.0668 C.ar      1 <0>        -0.0956
     22 C17        -4.7399    1.2607    8.3349 C.ar      1 <0>        -0.0785
     23 Br1        -5.0713   -1.4552   11.4415 Br        1 <0>        -0.0425
     24 N3         -3.9884    5.9693    6.2288 N.pl3     1 <0>        -0.8291
     25 H1         -1.8128   -0.0728   -0.6834 H         1 <0>         0.1045
     26 H2         -0.8869    1.4400   -0.9675 H         1 <0>         0.0585
     27 H3         -2.6227    1.3508   -1.4211 H         1 <0>         0.0585
     28 H4         -1.8354    3.2851   -1.2563 H         1 <0>         0.1337
     29 H5         -2.0402    5.7193   -0.9582 H         1 <0>         0.1268
     30 H6         -2.6623    6.6483    1.2329 H         1 <0>         0.1282
     31 H7         -3.0813    5.1476    3.1376 H         1 <0>         0.1875
     32 H8         -2.8757    1.4178    2.9604 H         1 <0>         0.4679
     33 H9         -4.0217    3.3827   10.8845 H         1 <0>         0.1433
     34 H10        -4.3807    1.3187   12.1725 H         1 <0>         0.1400
     35 H11        -5.1856   -0.8140    8.5637 H         1 <0>         0.1399
     36 H12        -4.8416    1.2426    7.2599 H         1 <0>         0.1396
     37 H13        -4.2512    6.2354    7.2633 H         1 <0>         0.4522
     38 H14        -3.8907    6.7561    5.4663 H         1 <0>         0.4251
@<TRIPOS>BOND
     1    1    2 1
     2    1   25 1
     3    1   26 1
     4    1   27 1
     5    2    3 1
     6    3    8 ar
     7    3    4 ar
     8    4    5 ar
     9    4   28 1
    10    5    6 ar
    11    5   29 1
    12    6    7 ar
    13    6   30 1
    14    7    8 ar
    15    7   31 1
    16    8    9 1
    17    9   10 1
    18    9   32 1
    19   10   14 1
    20   10   11 2
    21   11   12 1
    22   12   13 2
    23   12   24 1
    24   13   14 1
    25   13   15 1
    26   15   16 2
    27   15   17 1
    28   17   22 ar
    29   17   18 ar
    30   18   19 ar
    31   18   33 1
    32   19   20 ar
    33   19   34 1
    34   20   21 ar
    35   20   23 1
    36   21   22 ar
    37   21   35 1
    38   22   36 1
    39   24   37 1
    40   24   38 1
@<TRIPOS>MOLECULE
ZINC38705474
   57    60     0     0     0
SMALL
USER_CHARGES

@<TRIPOS>ATOM
      1 C1         -0.0562    1.4709    0.0891 C.3       1 <0>        -0.1540
      2 C2          0.0062   -0.0574    0.0519 C.3       1 <0>        -0.1241
      3 C3          0.6846   -0.5712    1.3233 C.3       1 <0>        -0.1171
      4 C4          0.7470   -2.0995    1.2861 C.3       1 <0>        -0.1387
      5 C5          1.4255   -2.6133    2.5576 C.3       1 <0>         0.1389
      6 N1          1.4852   -4.0766    2.5220 N.am      1 <0>        -0.5945
      7 C6          0.4594   -4.9924    3.0377 C.3       1 <0>         0.2503
      8 H1         -0.4832   -4.8332    2.5139 H         1 <0>         0.1174
      9 C7          0.9705   -6.3821    2.7730 C.2       1 <0>        -0.1465
     10 C8          0.7507   -7.7597    2.8789 C.2       1 <0>         0.1223
     11 N2          1.7936   -8.3674    2.3482 N.2       1 <0>        -0.2450
     12 N3          2.6497   -7.5104    1.9180 N.pl3     1 <0>        -0.3361
     13 H2          3.4918   -7.7309    1.4901 H         1 <0>         0.4524
     14 C9          2.1970   -6.2431    2.1523 C.2       1 <0>        -0.0687
     15 C10         2.4864   -4.8122    2.0061 C.2       1 <0>         0.5980
     16 O1          3.4903   -4.3557    1.4931 O.2       1 <0>        -0.5194
     17 C11        -0.4373   -8.4162    3.4788 C.ar      1 <0>        -0.0473
     18 C12        -0.2755   -9.4305    4.4193 C.ar      1 <0>        -0.0348
     19 C13        -1.3835  -10.0378    4.9749 C.ar      1 <0>        -0.1315
     20 C14        -2.6556   -9.6428    4.6005 C.ar      1 <0>        -0.0537
     21 C15        -2.8273   -8.6374    3.6681 C.ar      1 <0>        -0.1539
     22 C16        -1.7235   -8.0154    3.1068 C.ar      1 <0>         0.1401
     23 O2         -1.8909   -7.0232    2.1939 O.3       1 <0>        -0.4927
     24 C17        -3.8594  -10.3125    5.2118 C.3       1 <0>        -0.1183
     25 C18         1.1080   -9.8648    4.8296 C.3       1 <0>        -0.1264
     26 C19         0.2718   -4.7805    4.5179 C.ar      1 <0>        -0.0746
     27 C20         1.3744   -4.6635    5.3443 C.ar      1 <0>        -0.1063
     28 C21         1.2057   -4.4690    6.7025 C.ar      1 <0>        -0.1024
     29 C22        -0.0657   -4.3916    7.2378 C.ar      1 <0>        -0.1386
     30 C23        -1.1733   -4.5087    6.4111 C.ar      1 <0>         0.1075
     31 C24        -1.0013   -4.6977    5.0473 C.ar      1 <0>        -0.1198
     32 O3         -2.4249   -4.4328    6.9352 O.3       1 <0>        -0.4968
     33 H3          0.9545    1.8744    0.1500 H         1 <0>         0.0541
     34 H4         -0.5396    1.8370   -0.8167 H         1 <0>         0.0540
     35 H5         -0.6280    1.7901    0.9604 H         1 <0>         0.0539
     36 H6         -1.0046   -0.4609   -0.0091 H         1 <0>         0.0613
     37 H7          0.5780   -0.3766   -0.8195 H         1 <0>         0.0614
     38 H8          1.6954   -0.1677    1.3843 H         1 <0>         0.0654
     39 H9          0.1128   -0.2520    2.1947 H         1 <0>         0.0647
     40 H10        -0.2637   -2.5030    1.2252 H         1 <0>         0.0679
     41 H11         1.3188   -2.4187    0.4148 H         1 <0>         0.0689
     42 H12         2.4362   -2.2098    2.6185 H         1 <0>         0.0897
     43 H13         0.8537   -2.2941    3.4289 H         1 <0>         0.0875
     44 H14        -1.2570  -10.8243    5.7042 H         1 <0>         0.1281
     45 H15        -3.8226   -8.3333    3.3796 H         1 <0>         0.1318
     46 H16        -2.0143   -7.3388    1.2882 H         1 <0>         0.3909
     47 H17        -4.1549   -9.7759    6.1134 H         1 <0>         0.0752
     48 H18        -4.6824  -10.3031    4.4972 H         1 <0>         0.0688
     49 H19        -3.6115  -11.3428    5.4669 H         1 <0>         0.0696
     50 H20         1.4372   -9.2712    5.6824 H         1 <0>         0.0696
     51 H21         1.0909  -10.9191    5.1057 H         1 <0>         0.0699
     52 H22         1.7966   -9.7183    3.9975 H         1 <0>         0.0834
     53 H23         2.3691   -4.7244    4.9278 H         1 <0>         0.1176
     54 H24         2.0685   -4.3779    7.3458 H         1 <0>         0.1278
     55 H25        -0.1969   -4.2404    8.2991 H         1 <0>         0.1293
     56 H26        -1.8621   -4.7844    4.4008 H         1 <0>         0.1331
     57 H27        -2.7864   -3.5364    6.9620 H         1 <0>         0.3907
@<TRIPOS>BOND
     1    1    2 1
     2    1   33 1
     3    1   34 1
     4    1   35 1
     5    2    3 1
     6    2   36 1
     7    2   37 1
     8    3    4 1
     9    3   38 1
    10    3   39 1
    11    4    5 1
    12    4   40 1
    13    4   41 1
    14    5    6 1
    15    5   42 1
    16    5   43 1
    17    6   15 am
    18    6    7 1
    19    7    8 1
    20    7    9 1
    21    7   26 1
    22    9   14 2
    23    9   10 1
    24   10   11 2
    25   10   17 1
    26   11   12 1
    27   12   13 1
    28   12   14 1
    29   14   15 1
    30   15   16 2
    31   17   22 ar
    32   17   18 ar
    33   18   19 ar
    34   18   25 1
    35   19   20 ar
    36   19   44 1
    37   20   21 ar
    38   20   24 1
    39   21   22 ar
    40   21   45 1
    41   22   23 1
    42   23   46 1
    43   24   47 1
    44   24   48 1
    45   24   49 1
    46   25   50 1
    47   25   51 1
    48   25   52 1
    49   26   31 ar
    50   26   27 ar
    51   27   28 ar
    52   27   53 1
    53   28   29 ar
    54   28   54 1
    55   29   30 ar
    56   29   55 1
    57   30   31 ar
    58   30   32 1
    59   31   56 1
    60   32   57 1
@<TRIPOS>MOLECULE
ZINC04553448
   59    62     0     0     0
SMALL
USER_CHARGES

@<TRIPOS>ATOM
      1 C1         -0.0187    1.5258    0.0104 C.3       1 <0>        -0.1572
      2 C2          0.0021   -0.0041    0.0020 C.3       1 <0>        -0.1163
      3 C3          0.7421   -0.5109    1.2415 C.3       1 <0>        -0.0571
      4 C4          2.1775    0.0187    1.2307 C.3       1 <0>        -0.1498
      5 C5          0.0259   -0.0175    2.5003 C.3       1 <0>        -0.1470
      6 C6          0.7628   -2.0407    1.2331 C.3       1 <0>        -0.0682
      7 H1         -0.2591   -2.4198    1.2409 H         1 <0>         0.0748
      8 C7          1.5085   -2.5505    2.4697 C.3       1 <0>        -0.1182
      9 C8          1.3240   -4.0636    2.6021 C.3       1 <0>        -0.0566
     10 C9          1.7007   -4.7195    1.2811 C.2       1 <0>        -0.0312
     11 C10         1.7623   -4.0014    0.1364 C.2       1 <0>        -0.2161
     12 S1          2.2314   -5.1729   -1.1076 S.3       1 <0>         0.1982
     13 C11         2.3373   -6.5380   -0.1726 C.2       1 <0>         0.0984
     14 C12         2.0200   -6.1270    1.1273 C.2       1 <0>        -0.2533
     15 C13         2.0500   -7.1566    2.1980 C.2       1 <0>         0.4654
     16 N1          2.1208   -8.4082    1.8331 N.2       1 <0>        -0.6458
     17 C14         2.1080   -8.8675    0.4500 C.3       1 <0>         0.3993
     18 H2          2.7111   -9.7719    0.3699 H         1 <0>         0.1200
     19 N2          2.6475   -7.8468   -0.4668 N.pl3     1 <0>        -0.7050
     20 C15         0.6902   -9.1852    0.0503 C.ar      1 <0>        -0.0890
     21 C16         0.2964   -9.0421   -1.2672 C.ar      1 <0>        -0.1237
     22 C17        -1.0031   -9.3323   -1.6388 C.ar      1 <0>        -0.1081
     23 C18        -1.9141   -9.7682   -0.6901 C.ar      1 <0>         0.0777
     24 C19        -1.5177   -9.9127    0.6359 C.ar      1 <0>         0.1035
     25 C20        -0.2123   -9.6247    1.0009 C.ar      1 <0>        -0.1650
     26 O1         -2.4081  -10.3402    1.5708 O.3       1 <0>        -0.3061
     27 C21        -1.9309  -10.4651    2.9119 C.3       1 <0>         0.0535
     28 C22        -3.0660  -10.9543    3.8136 C.3       1 <0>        -0.1518
     29 O2         -3.1930  -10.0537   -1.0539 O.3       1 <0>        -0.4861
     30 O3          2.0050   -6.8095    3.5050 O.3       1 <0>        -0.4528
     31 C23         1.4868   -2.5386   -0.0265 C.3       1 <0>        -0.0285
     32 H3          1.0039    1.9031    0.0027 H         1 <0>         0.0569
     33 H4         -0.5459    1.8868   -0.8726 H         1 <0>         0.0511
     34 H5         -0.5289    1.8773    0.9072 H         1 <0>         0.0565
     35 H6         -1.0205   -0.3814    0.0098 H         1 <0>         0.0613
     36 H7          0.5123   -0.3556   -0.8948 H         1 <0>         0.0635
     37 H8          2.1627    1.1086    1.2367 H         1 <0>         0.0577
     38 H9          2.7046   -0.3424    2.1137 H         1 <0>         0.0575
     39 H10         2.6876   -0.3328    0.3339 H         1 <0>         0.0577
     40 H11        -0.9967   -0.3948    2.5081 H         1 <0>         0.0542
     41 H12         0.5531   -0.3786    3.3834 H         1 <0>         0.0585
     42 H13         0.0111    1.0724    2.5063 H         1 <0>         0.0586
     43 H14         2.5698   -2.3223    2.3721 H         1 <0>         0.0677
     44 H15         1.1140   -2.0585    3.3588 H         1 <0>         0.0739
     45 H16         1.9687   -4.4424    3.3952 H         1 <0>         0.0845
     46 H17         0.2830   -4.2858    2.8368 H         1 <0>         0.0750
     47 H18         3.1908   -8.0840   -1.2346 H         1 <0>         0.4163
     48 H19         1.0054   -8.7025   -2.0076 H         1 <0>         0.1249
     49 H20        -1.3084   -9.2190   -2.6686 H         1 <0>         0.1368
     50 H21         0.0990   -9.7396    2.0286 H         1 <0>         0.1404
     51 H22        -1.1099  -11.1816    2.9402 H         1 <0>         0.0623
     52 H23        -1.5792   -9.4954    3.2643 H         1 <0>         0.0607
     53 H24        -3.8870  -10.2378    3.7853 H         1 <0>         0.0669
     54 H25        -3.4178  -11.9240    3.4613 H         1 <0>         0.0666
     55 H26        -2.7021  -11.0496    4.8366 H         1 <0>         0.0796
     56 H27        -3.3302  -10.9731   -1.3202 H         1 <0>         0.3870
     57 H28         2.0305   -7.5613    4.1127 H         1 <0>         0.4049
     58 H29         0.8562   -2.3766   -0.9007 H         1 <0>         0.0776
     59 H30         2.4271   -2.0005   -0.1466 H         1 <0>         0.0838
@<TRIPOS>BOND
     1    1    2 1
     2    1   32 1
     3    1   33 1
     4    1   34 1
     5    2    3 1
     6    2   35 1
     7    2   36 1
     8    3    4 1
     9    3    5 1
    10    3    6 1
    11    4   37 1
    12    4   38 1
    13    4   39 1
    14    5   40 1
    15    5   41 1
    16    5   42 1
    17    6    7 1
    18    6   31 1
    19    6    8 1
    20    8    9 1
    21    8   43 1
    22    8   44 1
    23    9   10 1
    24    9   45 1
    25    9   46 1
    26   10   14 1
    27   10   11 2
    28   11   12 1
    29   11   31 1
    30   12   13 1
    31   13   19 1
    32   13   14 2
    33   14   15 1
    34   15   16 2
    35   15   30 1
    36   16   17 1
    37   17   18 1
    38   17   19 1
    39   17   20 1
    40   19   47 1
    41   20   25 ar
    42   20   21 ar
    43   21   22 ar
    44   21   48 1
    45   22   23 ar
    46   22   49 1
    47   23   24 ar
    48   23   29 1
    49   24   25 ar
    50   24   26 1
    51   25   50 1
    52   26   27 1
    53   27   28 1
    54   27   51 1
    55   27   52 1
    56   28   53 1
    57   28   54 1
    58   28   55 1
    59   29   56 1
    60   30   57 1
    61   31   58 1
    62   31   59 1
@<TRIPOS>MOLECULE
ZINC04614935
   61    62     0     0     0
SMALL
USER_CHARGES
4-oxo-4-[(15-propoxycarbonyl-13-thiabicyclo[10.3.0]pentadeca-14,16-dien-14-yl)amino]butanoic acid
@<TRIPOS>ATOM
      1 C1         -5.4654    7.9880   -3.3749 C.3       1 <0>        -0.1500
      2 C2         -5.1141    6.5864   -2.8718 C.3       1 <0>        -0.1241
      3 C3         -3.7152    6.2051   -3.3601 C.3       1 <0>         0.0617
      4 O1         -3.3818    4.8749   -2.8826 O.3       1 <0>        -0.3508
      5 C4         -2.1733    4.3855   -3.2278 C.2       1 <0>         0.5379
      6 O2         -1.4188    5.0531   -3.9095 O.2       1 <0>        -0.4959
      7 C5         -1.7694    3.0504   -2.7818 C.2       1 <0>        -0.2274
      8 C6         -1.0725    2.8473   -1.5335 C.2       1 <0>        -0.0575
      9 C7         -0.7398    1.5842   -1.2143 C.2       1 <0>        -0.2104
     10 S1         -1.3654    0.6361   -2.5864 S.3       1 <0>         0.2342
     11 C8         -2.0379    1.9154   -3.5401 C.2       1 <0>         0.1001
     12 N1         -2.6860    1.8294   -4.7623 N.am      1 <0>        -0.6270
     13 C9         -2.8557    0.6296   -5.3522 C.2       1 <0>         0.5089
     14 O3         -2.4414   -0.3750   -4.8135 O.2       1 <0>        -0.4951
     15 C10        -3.5603    0.5361   -6.6810 C.3       1 <0>        -0.1126
     16 C11        -3.6192   -0.9267   -7.1254 C.3       1 <0>        -0.1430
     17 C12        -4.3238   -1.0202   -8.4542 C.2       1 <0>         0.4613
     18 O4         -4.7365   -0.0194   -8.9908 O.co2     1 <0>        -0.6433
     19 C13        -0.0127    1.0858    0.0080 C.3       1 <0>        -0.0248
     20 C14        -0.7268    1.5782    1.2679 C.3       1 <0>        -0.1327
     21 C15         0.1057    1.2090    2.4994 C.3       1 <0>        -0.1202
     22 C16         0.3774    2.4665    3.3277 C.3       1 <0>        -0.1229
     23 C17         1.4615    3.3035    2.6452 C.3       1 <0>        -0.1216
     24 C18         0.8849    4.6662    2.2560 C.3       1 <0>        -0.1254
     25 C19         1.8096    5.3399    1.2406 C.3       1 <0>        -0.1210
     26 C20         1.0213    5.6724   -0.0272 C.3       1 <0>        -0.1206
     27 C21         0.7335    4.3847   -0.8024 C.3       1 <0>        -0.1135
     28 C22        -0.7378    4.0037   -0.6269 C.3       1 <0>        -0.0764
     29 H1         -5.4455    7.9985   -4.4647 H         1 <0>         0.0592
     30 H2         -6.4620    8.2597   -3.0271 H         1 <0>         0.0651
     31 H3         -4.7389    8.7044   -2.9914 H         1 <0>         0.0570
     32 H4         -5.8406    5.8701   -3.2554 H         1 <0>         0.0756
     33 H5         -5.1340    6.5760   -1.7821 H         1 <0>         0.0733
     34 H6         -2.9887    6.9214   -2.9765 H         1 <0>         0.0693
     35 H7         -3.6953    6.2155   -4.4498 H         1 <0>         0.0710
     36 H8         -3.0174    2.6329   -5.1931 H         1 <0>         0.4197
     37 H9         -4.5731    0.9273   -6.5836 H         1 <0>         0.1030
     38 H10        -3.0153    1.1196   -7.4231 H         1 <0>         0.1029
     39 H11        -2.6064   -1.3179   -7.2228 H         1 <0>         0.0742
     40 H12        -4.1642   -1.5102   -6.3833 H         1 <0>         0.0743
     41 H13         0.0021   -0.0041    0.0020 H         1 <0>         0.0762
     42 H14         1.0101    1.4624    0.0003 H         1 <0>         0.0812
     43 H15        -0.8443    2.6608    1.2196 H         1 <0>         0.0839
     44 H16        -1.7081    1.1086    1.3365 H         1 <0>         0.0656
     45 H17         1.0522    0.7721    2.1812 H         1 <0>         0.0656
     46 H18        -0.4425    0.4869    3.1046 H         1 <0>         0.0607
     47 H19         0.7135    2.1796    4.3241 H         1 <0>         0.0579
     48 H20        -0.5377    3.0533    3.4081 H         1 <0>         0.0637
     49 H21         1.8095    2.7873    1.7504 H         1 <0>         0.0668
     50 H22         2.2968    3.4449    3.3310 H         1 <0>         0.0574
     51 H23         0.8024    5.2928    3.1440 H         1 <0>         0.0573
     52 H24        -0.1023    4.5302    1.8142 H         1 <0>         0.0682
     53 H25         2.6291    4.6655    0.9923 H         1 <0>         0.0644
     54 H26         2.2122    6.2578    1.6691 H         1 <0>         0.0567
     55 H27         1.6053    6.3491   -0.6511 H         1 <0>         0.0598
     56 H28         0.0804    6.1504    0.2452 H         1 <0>         0.0621
     57 H29         1.3648    3.5821   -0.4212 H         1 <0>         0.0689
     58 H30         0.9445    4.5423   -1.8601 H         1 <0>         0.0632
     59 H31        -1.3665    4.8573   -0.8804 H         1 <0>         0.0603
     60 H32        -0.9172    3.7163    0.4091 H         1 <0>         0.0955
     61 O5         -4.4928   -2.2152   -9.0417 O.co2     1 <0>        -0.7677
@<TRIPOS>BOND
     1    1    2 1
     2    1   29 1
     3    1   30 1
     4    1   31 1
     5    2    3 1
     6    2   32 1
     7    2   33 1
     8    3    4 1
     9    3   34 1
    10    3   35 1
    11    4    5 1
    12    5    6 2
    13    5    7 1
    14    7   11 2
    15    7    8 1
    16    8   28 1
    17    8    9 2
    18    9   10 1
    19    9   19 1
    20   10   11 1
    21   11   12 1
    22   12   13 am
    23   12   36 1
    24   13   14 2
    25   13   15 1
    26   15   16 1
    27   15   37 1
    28   15   38 1
    29   16   17 1
    30   16   39 1
    31   16   40 1
    32   17   18 2
    33   17   61 1
    34   19   20 1
    35   19   41 1
    36   19   42 1
    37   20   21 1
    38   20   43 1
    39   20   44 1
    40   21   22 1
    41   21   45 1
    42   21   46 1
    43   22   23 1
    44   22   47 1
    45   22   48 1
    46   23   24 1
    47   23   49 1
    48   23   50 1
    49   24   25 1
    50   24   51 1
    51   24   52 1
    52   25   26 1
    53   25   53 1
    54   25   54 1
    55   26   27 1
    56   26   55 1
    57   26   56 1
    58   27   28 1
    59   27   57 1
    60   27   58 1
    61   28   59 1
    62   28   60 1
@<TRIPOS>MOLECULE
ZINC05116060
   50    52     0     0     0
SMALL
USER_CHARGES
1-[3-[(2-benzylsulfanyl-4,6-dihydroxy-pyrimidin-5-yl)methyl]-4-ethoxy-phenyl]ethanone
@<TRIPOS>ATOM
      1 C1          9.9704   -2.1974    3.8064 C.3       1 <0>        -0.1456
      2 C2         10.7844   -1.7797    2.5801 C.3       1 <0>         0.0559
      3 O1         10.2988   -2.4715    1.4279 O.3       1 <0>        -0.2555
      4 C3         10.9169   -2.2129    0.2483 C.ar      1 <0>         0.1727
      5 C4         11.9758   -1.3123    0.2036 C.ar      1 <0>        -0.2394
      6 C5         12.5993   -1.0418   -0.9811 C.ar      1 <0>        -0.0462
      7 C6         12.1771   -1.6767   -2.1558 C.ar      1 <0>        -0.2334
      8 C7         11.1147   -2.5880   -2.1103 C.ar      1 <0>        -0.0049
      9 C8         10.4928   -2.8531   -0.9113 C.ar      1 <0>        -0.1022
     10 C9          9.3486   -3.8323   -0.8561 C.3       1 <0>         0.0352
     11 C10         8.0454   -3.0910   -1.0080 C.2       1 <0>        -0.3847
     12 C11         7.3108   -2.7077    0.1087 C.2       1 <0>         0.4571
     13 N1          6.1708   -2.0465   -0.0624 N.2       1 <0>        -0.5413
     14 C12         5.7281   -1.7613   -1.2784 C.2       1 <0>         0.3506
     15 N2          6.3973   -2.1201   -2.3646 N.am      1 <0>        -0.6122
     16 C13         7.5469   -2.7795   -2.2681 C.2       1 <0>         0.4556
     17 O2          8.2306   -3.1341   -3.3835 O.2       1 <0>        -0.6742
     18 S1          4.2110   -0.8828   -1.4558 S.3       1 <0>         0.0004
     19 C14         4.1191   -0.7754   -3.2602 C.3       1 <0>        -0.1096
     20 C15         2.8641   -0.0411   -3.6565 C.ar      1 <0>        -0.0705
     21 C16         2.8856    1.3328   -3.8069 C.ar      1 <0>        -0.0990
     22 C17         1.7345    2.0063   -4.1704 C.ar      1 <0>        -0.1200
     23 C18         0.5619    1.3060   -4.3834 C.ar      1 <0>        -0.1144
     24 C19         0.5405   -0.0681   -4.2334 C.ar      1 <0>        -0.1200
     25 C20         1.6917   -0.7417   -3.8699 C.ar      1 <0>        -0.0989
     26 O3          7.7566   -2.9961    1.3556 O.3       1 <0>        -0.6300
     27 C21        12.8465   -1.3883   -3.4307 C.2       1 <0>         0.3967
     28 O4         12.5461   -2.0104   -4.4277 O.2       1 <0>        -0.4672
     29 C22        13.9068   -0.3197   -3.5002 C.3       1 <0>        -0.1990
     30 H1         10.3442   -1.6648    4.6934 H         1 <0>         0.0638
     31 H2         10.0703   -3.2819    3.9608 H         1 <0>         0.0621
     32 H3          8.9116   -1.9457    3.6468 H         1 <0>         0.0789
     33 H4         10.6845   -0.6952    2.4258 H         1 <0>         0.0522
     34 H5         11.8433   -2.0314    2.7397 H         1 <0>         0.0499
     35 H6         12.3034   -0.8217    1.1083 H         1 <0>         0.1249
     36 H7         13.4183   -0.3385   -1.0120 H         1 <0>         0.1226
     37 H8         10.7842   -3.0806   -3.0128 H         1 <0>         0.1440
     38 H9          9.4519   -4.5633   -1.6715 H         1 <0>         0.0595
     39 H10         9.3615   -4.3571    0.1106 H         1 <0>         0.0758
     40 H11         4.1012   -1.7890   -3.6874 H         1 <0>         0.1064
     41 H12         4.9970   -0.2327   -3.6405 H         1 <0>         0.1060
     42 H13         3.8016    1.8800   -3.6402 H         1 <0>         0.1272
     43 H14         1.7512    3.0799   -4.2876 H         1 <0>         0.1245
     44 H15        -0.3386    1.8327   -4.6627 H         1 <0>         0.1223
     45 H16        -0.3757   -0.6152   -4.3996 H         1 <0>         0.1246
     46 H17         1.6750   -1.8151   -3.7528 H         1 <0>         0.1276
     47 H18         5.9905   -1.8658   -3.3544 H         1 <0>         0.4142
     48 H19        14.2893   -0.2491   -4.5292 H         1 <0>         0.0792
     49 H20        14.7316   -0.5766   -2.8192 H         1 <0>         0.0892
     50 H21        13.4734    0.6467   -3.2031 H         1 <0>         0.0892
@<TRIPOS>BOND
     1    1    2 1
     2    1   30 1
     3    1   31 1
     4    1   32 1
     5    2    3 1
     6    2   33 1
     7    2   34 1
     8    3    4 1
     9    4    9 ar
    10    4    5 ar
    11    5    6 ar
    12    5   35 1
    13    6    7 ar
    14    6   36 1
    15    7    8 ar
    16    7   27 1
    17    8    9 ar
    18    8   37 1
    19    9   10 1
    20   10   38 1
    21   10   39 1
    22   10   11 1
    23   11   12 2
    24   11   16 1
    25   12   26 1
    26   12   13 1
    27   13   14 2
    28   14   15 1
    29   14   18 1
    30   15   16 am
    31   15   47 1
    32   16   17 2
    33   18   19 1
    34   19   20 1
    35   19   40 1
    36   19   41 1
    37   20   25 ar
    38   20   21 ar
    39   21   22 ar
    40   21   42 1
    41   22   23 ar
    42   22   43 1
    43   23   24 ar
    44   23   44 1
    45   24   25 ar
    46   24   45 1
    47   25   46 1
    48   27   28 2
    49   27   29 1
    50   29   48 1
    51   29   49 1
    52   29   50 1
@<TRIPOS>MOLECULE
ZINC35697462
   59    61     0     0     0
SMALL
USER_CHARGES

@<TRIPOS>ATOM
      1 C1         -1.8921    0.5447   -0.5071 C.3       1 <0>        -0.1084
      2 C2         -1.1000   -0.7276   -0.3493 C.ar      1 <0>        -0.0980
      3 C3         -0.5053   -1.3128   -1.4517 C.ar      1 <0>        -0.1180
      4 C4          0.2212   -2.4797   -1.3071 C.ar      1 <0>        -0.1246
      5 C5          0.3536   -3.0614   -0.0598 C.ar      1 <0>        -0.0473
      6 C6         -0.2401   -2.4759    1.0424 C.ar      1 <0>        -0.0679
      7 C7         -0.9633   -1.3064    0.8983 C.ar      1 <0>        -0.0883
      8 C8         -0.0962   -3.1102    2.4018 C.3       1 <0>         0.2535
      9 H1          0.6353   -3.9140    2.3178 H         1 <0>         0.0817
     10 C9         -1.4265   -3.7280    2.7705 C.2       1 <0>        -0.3943
     11 C10        -2.0343   -3.3010    3.9355 C.2       1 <0>         0.3036
     12 N1         -1.4597   -2.3811    4.6932 N.2       1 <0>        -0.5974
     13 C11        -0.3051   -1.8045    4.4299 C.2       1 <0>         0.3188
     14 N2          0.4537   -2.0858    3.3291 N.pl3     1 <0>        -0.5109
     15 C12         1.6412   -1.3945    3.1941 C.2       1 <0>         0.2331
     16 C13         1.9581   -0.4992    4.1553 C.2       1 <0>        -0.3081
     17 S1          0.5683   -0.6354    5.2589 S.3       1 <0>         0.1418
     18 C14         2.5294   -1.6245    2.0456 C.2       1 <0>        -0.4722
     19 C15         3.7325   -1.0214    1.9933 C.2       1 <0>         0.5020
     20 O1          4.1710   -0.2914    3.0477 O.3       1 <0>        -0.7048
     21 N3          4.5214   -1.1470    0.8623 N.pl3     1 <0>        -0.7502
     22 C16         5.8739   -0.5842    0.8464 C.3       1 <0>         0.1490
     23 C17         6.8686   -1.6327    1.3484 C.3       1 <0>        -0.1579
     24 C18         6.2399   -0.1767   -0.5822 C.3       1 <0>        -0.1568
     25 C19        -3.3608   -3.8868    4.3458 C.3       1 <0>        -0.1166
     26 C20        -2.0226   -4.7001    1.9579 C.2       1 <0>         0.5382
     27 O2         -3.1342   -5.1213    2.2272 O.2       1 <0>        -0.5504
     28 O3         -1.3655   -5.1712    0.8751 O.3       1 <0>        -0.3449
     29 C21        -2.0750   -6.0791    0.0299 C.3       1 <0>         0.0959
     30 C22        -1.1519   -6.5889   -1.0467 C.2       1 <0>        -0.1466
     31 C23        -1.0626   -7.8752   -1.2780 C.2       1 <0>        -0.1809
     32 C24         1.1449   -4.3343    0.0978 C.3       1 <0>        -0.1135
     33 H2         -1.2307    1.4022   -0.3830 H         1 <0>         0.0664
     34 H3         -2.3408    0.5725   -1.5001 H         1 <0>         0.0609
     35 H4         -2.6777    0.5795    0.2477 H         1 <0>         0.0600
     36 H5         -0.6087   -0.8584   -2.4260 H         1 <0>         0.1133
     37 H6          0.6852   -2.9372   -2.1683 H         1 <0>         0.1149
     38 H7         -1.4241   -0.8468    1.7602 H         1 <0>         0.1034
     39 H8          2.8292    0.1344    4.2340 H         1 <0>         0.2340
     40 H9          2.2172   -2.2772    1.2438 H         1 <0>         0.0957
     41 H10         4.1785   -1.6078    0.0806 H         1 <0>         0.3826
     42 H11         5.9107    0.2913    1.4946 H         1 <0>         0.0831
     43 H12         7.8607   -1.1871    1.4207 H         1 <0>         0.0494
     44 H13         6.5573   -1.9879    2.3307 H         1 <0>         0.0585
     45 H14         6.8964   -2.4702    0.6513 H         1 <0>         0.0440
     46 H15         5.5312    0.5703   -0.9399 H         1 <0>         0.0550
     47 H16         7.2461    0.2420   -0.5941 H         1 <0>         0.0591
     48 H17         6.2030   -1.0522   -1.2305 H         1 <0>         0.0505
     49 H18        -3.1956   -4.8252    4.8749 H         1 <0>         0.0785
     50 H19        -3.8801   -3.1870    5.0006 H         1 <0>         0.0642
     51 H20        -3.9663   -4.0717    3.4585 H         1 <0>         0.1128
     52 H21        -2.4398   -6.9178    0.6228 H         1 <0>         0.0657
     53 H22        -2.9190   -5.5642   -0.4290 H         1 <0>         0.0670
     54 H23        -0.5639   -5.8937   -1.6276 H         1 <0>         0.1183
     55 H24        -1.6506   -8.5704   -0.6971 H         1 <0>         0.0971
     56 H25        -0.4011   -8.2406   -2.0495 H         1 <0>         0.1034
     57 H26         2.2012   -4.0930    0.2172 H         1 <0>         0.0653
     58 H27         0.7938   -4.8738    0.9773 H         1 <0>         0.0768
     59 H28         1.0122   -4.9566   -0.7872 H         1 <0>         0.0603
@<TRIPOS>BOND
     1    1    2 1
     2    1   33 1
     3    1   34 1
     4    1   35 1
     5    2    7 ar
     6    2    3 ar
     7    3    4 ar
     8    3   36 1
     9    4    5 ar
    10    4   37 1
    11    5    6 ar
    12    5   32 1
    13    6    7 ar
    14    6    8 1
    15    7   38 1
    16    8    9 1
    17    8   14 1
    18    8   10 1
    19   10   11 2
    20   10   26 1
    21   11   12 1
    22   11   25 1
    23   12   13 2
    24   13   17 1
    25   13   14 1
    26   14   15 1
    27   15   16 2
    28   15   18 1
    29   16   17 1
    30   16   39 1
    31   18   19 2
    32   18   40 1
    33   19   20 1
    34   19   21 1
    35   21   22 1
    36   21   41 1
    37   22   23 1
    38   22   24 1
    39   22   42 1
    40   23   43 1
    41   23   44 1
    42   23   45 1
    43   24   46 1
    44   24   47 1
    45   24   48 1
    46   25   49 1
    47   25   50 1
    48   25   51 1
    49   26   27 2
    50   26   28 1
    51   28   29 1
    52   29   30 1
    53   29   52 1
    54   29   53 1
    55   30   31 2
    56   30   54 1
    57   31   55 1
    58   31   56 1
    59   32   57 1
    60   32   58 1
    61   32   59 1
@<TRIPOS>MOLECULE
ZINC36071909
   64    66     0     0     0
SMALL
USER_CHARGES

@<TRIPOS>ATOM
      1 C1         -0.4768    1.1074    0.3635 C.3       1 <0>        -0.1082
      2 C2         -0.2983   -0.3795    0.1949 C.ar      1 <0>        -0.0861
      3 C3          0.3300   -0.8769   -0.9318 C.ar      1 <0>        -0.1299
      4 C4          0.4937   -2.2406   -1.0864 C.ar      1 <0>        -0.0860
      5 C5          0.0296   -3.1072   -0.1143 C.ar      1 <0>        -0.0751
      6 C6         -0.5977   -2.6099    1.0124 C.ar      1 <0>        -0.0353
      7 C7         -0.7576   -1.2456    1.1692 C.ar      1 <0>        -0.1275
      8 C8         -1.1040   -3.5545    2.0718 C.3       1 <0>        -0.1230
      9 C9          0.2072   -4.5941   -0.2834 C.3       1 <0>         0.2531
     10 H1         -0.3629   -5.0886    0.5031 H         1 <0>         0.0820
     11 C10         1.6696   -4.9155   -0.0707 C.2       1 <0>        -0.3921
     12 C11         2.3478   -5.5417   -1.0989 C.2       1 <0>         0.3014
     13 N1          1.7252   -5.8436   -2.2266 N.2       1 <0>        -0.5979
     14 C12         0.4564   -5.5919   -2.4752 C.2       1 <0>         0.3190
     15 N2         -0.3867   -4.9803   -1.5911 N.pl3     1 <0>        -0.5118
     16 C13        -1.6905   -4.7859   -2.0016 C.2       1 <0>         0.2342
     17 C14        -2.0288   -5.2132   -3.2381 C.2       1 <0>        -0.3080
     18 S1         -0.4933   -5.8955   -3.8254 S.3       1 <0>         0.1418
     19 C15        -2.6759   -4.1376   -1.1244 C.2       1 <0>        -0.4735
     20 C16        -3.9719   -4.0889   -1.4877 C.2       1 <0>         0.5013
     21 O1         -4.3911   -4.7512   -2.5935 O.3       1 <0>        -0.7058
     22 N3         -4.8761   -3.3623   -0.7316 N.pl3     1 <0>        -0.7543
     23 C17        -6.2858   -3.3093   -1.1268 C.3       1 <0>         0.1460
     24 C18        -7.0628   -2.4469   -0.1301 C.3       1 <0>        -0.1099
     25 C19        -8.5071   -2.2889   -0.6099 C.3       1 <0>        -0.1420
     26 C20        -7.0526   -3.1205    1.2436 C.3       1 <0>        -0.1438
     27 C21         3.8065   -5.8826   -0.9349 C.3       1 <0>        -0.1151
     28 C22         2.3151   -4.5889    1.1281 C.2       1 <0>         0.5376
     29 O2          3.5078   -4.8041    1.2562 O.2       1 <0>        -0.5508
     30 O3          1.6155   -4.0350    2.1430 O.3       1 <0>        -0.3428
     31 C23         2.3568   -3.6235    3.2933 C.3       1 <0>         0.0779
     32 C24         2.7166   -2.1420    3.1650 C.3       1 <0>        -0.1638
     33 C25         1.5091   -3.8356    4.5492 C.3       1 <0>        -0.1511
     34 H2          0.3887    1.5208    0.8814 H         1 <0>         0.0635
     35 H3         -0.5717    1.5754   -0.6163 H         1 <0>         0.0613
     36 H4         -1.3764    1.3014    0.9475 H         1 <0>         0.0618
     37 H5          0.6925   -0.1999   -1.6911 H         1 <0>         0.1119
     38 H6          0.9838   -2.6292   -1.9669 H         1 <0>         0.1029
     39 H7         -1.2444   -0.8567    2.0514 H         1 <0>         0.1139
     40 H8         -0.3328   -3.6990    2.8284 H         1 <0>         0.0875
     41 H9         -1.9955   -3.1343    2.5374 H         1 <0>         0.0561
     42 H10        -1.3500   -4.5136    1.6159 H         1 <0>         0.0674
     43 H11        -2.9834   -5.1561   -3.7399 H         1 <0>         0.2314
     44 H12        -2.3606   -3.7002   -0.1886 H         1 <0>         0.0960
     45 H13        -4.5761   -2.8883    0.0598 H         1 <0>         0.3834
     46 H14        -6.3677   -2.8758   -2.1235 H         1 <0>         0.0486
     47 H15        -6.6992   -4.3179   -1.1342 H         1 <0>         0.0490
     48 H16        -6.5948   -1.4652   -0.0569 H         1 <0>         0.0693
     49 H17        -8.9751   -3.2706   -0.6831 H         1 <0>         0.0552
     50 H18        -9.0606   -1.6745    0.1001 H         1 <0>         0.0525
     51 H19        -8.5144   -1.8091   -1.5886 H         1 <0>         0.0550
     52 H20        -6.0237   -3.2331    1.5854 H         1 <0>         0.0556
     53 H21        -7.6062   -2.5061    1.9536 H         1 <0>         0.0490
     54 H22        -7.5206   -4.1022    1.1704 H         1 <0>         0.0539
     55 H23         3.9006   -6.8341   -0.4114 H         1 <0>         0.0784
     56 H24         4.2741   -5.9602   -1.9165 H         1 <0>         0.0634
     57 H25         4.2999   -5.1003   -0.3582 H         1 <0>         0.1118
     58 H26         3.2700   -4.2140    3.3674 H         1 <0>         0.0802
     59 H27         1.8034   -1.5515    3.0909 H         1 <0>         0.0631
     60 H28         3.2820   -1.8281    4.0424 H         1 <0>         0.0636
     61 H29         3.3205   -1.9909    2.2703 H         1 <0>         0.0567
     62 H30         1.3246   -4.9010    4.6874 H         1 <0>         0.0604
     63 H31         2.0400   -3.4433    5.4165 H         1 <0>         0.0698
     64 H32         0.5586   -3.3137    4.4383 H         1 <0>         0.0670
@<TRIPOS>BOND
     1    1    2 1
     2    1   34 1
     3    1   35 1
     4    1   36 1
     5    2    7 ar
     6    2    3 ar
     7    3    4 ar
     8    3   37 1
     9    4    5 ar
    10    4   38 1
    11    5    6 ar
    12    5    9 1
    13    6    7 ar
    14    6    8 1
    15    7   39 1
    16    8   40 1
    17    8   41 1
    18    8   42 1
    19    9   10 1
    20    9   15 1
    21    9   11 1
    22   11   12 2
    23   11   28 1
    24   12   13 1
    25   12   27 1
    26   13   14 2
    27   14   18 1
    28   14   15 1
    29   15   16 1
    30   16   17 2
    31   16   19 1
    32   17   18 1
    33   17   43 1
    34   19   20 2
    35   19   44 1
    36   20   21 1
    37   20   22 1
    38   22   23 1
    39   22   45 1
    40   23   24 1
    41   23   46 1
    42   23   47 1
    43   24   25 1
    44   24   26 1
    45   24   48 1
    46   25   49 1
    47   25   50 1
    48   25   51 1
    49   26   52 1
    50   26   53 1
    51   26   54 1
    52   27   55 1
    53   27   56 1
    54   27   57 1
    55   28   29 2
    56   28   30 1
    57   30   31 1
    58   31   32 1
    59   31   33 1
    60   31   58 1
    61   32   59 1
    62   32   60 1
    63   32   61 1
    64   33   62 1
    65   33   63 1
    66   33   64 1
@<TRIPOS>MOLECULE
ZINC44899678
   49    51     0     0     0
SMALL
USER_CHARGES

@<TRIPOS>ATOM
      1 C1         -0.2900    1.5520   -0.1425 C.3       1 <0>        -0.1144
      2 C2         -0.2250    0.0465   -0.1252 C.ar      1 <0>        -0.0899
      3 C3         -0.1987   -0.6580   -1.3143 C.ar      1 <0>        -0.1185
      4 C4         -0.1391   -2.0389   -1.2984 C.ar      1 <0>        -0.1045
      5 C5         -0.1053   -2.7155   -0.0934 C.ar      1 <0>        -0.0918
      6 C6         -0.1307   -2.0110    1.0957 C.ar      1 <0>        -0.1091
      7 C7         -0.1860   -0.6298    1.0798 C.ar      1 <0>        -0.1160
      8 C8         -0.0413   -4.2210   -0.0760 C.3       1 <0>         0.1850
      9 H1         -0.3806   -4.6102   -1.0360 H         1 <0>         0.0950
     10 C9          1.4006   -4.6673    0.1743 C.3       1 <0>        -0.1569
     11 N1         -0.9037   -4.7342    0.9913 N.am      1 <0>        -0.7323
     12 C10        -1.4112   -5.9799    0.9072 C.2       1 <0>         0.5797
     13 O1         -1.1534   -6.6778   -0.0545 O.2       1 <0>        -0.5580
     14 C11        -2.2796   -6.4966    1.9820 C.ar      1 <0>        -0.2492
     15 C12        -2.5816   -5.6933    3.0856 C.ar      1 <0>        -0.0194
     16 C13        -3.3919   -6.1778    4.0869 C.ar      1 <0>        -0.2652
     17 C14        -3.9111   -7.4665    4.0021 C.ar      1 <0>         0.3193
     18 C15        -3.6121   -8.2700    2.9043 C.ar      1 <0>        -0.1045
     19 C16        -2.8068   -7.7884    1.8962 C.ar      1 <0>        -0.0013
     20 Cl1        -4.2613   -9.8768    2.8031 Cl        1 <0>        -0.0809
     21 N2         -4.7298   -7.9530    5.0161 N.2       1 <0>        -1.0606
     22 S1         -4.9571   -7.0646    6.3950 S.o2      1 <0>         2.6063
     23 O2         -3.6813   -6.9299    7.0062 O.2       1 <0>        -1.0235
     24 O3         -5.7488   -5.9426    6.0293 O.2       1 <0>        -1.0232
     25 C17        -5.9383   -8.0390    7.4869 C.ar      1 <0>        -0.6163
     26 C18        -7.3171   -7.9509    7.4417 C.ar      1 <0>        -0.0234
     27 C19        -8.0869   -8.7154    8.2983 C.ar      1 <0>        -0.1472
     28 C20        -7.4780   -9.5684    9.1998 C.ar      1 <0>        -0.0821
     29 C21        -6.0992   -9.6572    9.2442 C.ar      1 <0>        -0.1471
     30 C22        -5.3295   -8.8958    8.3847 C.ar      1 <0>        -0.0231
     31 H2          0.7210    1.9592   -0.1551 H         1 <0>         0.0688
     32 H3         -0.8259    1.8823   -1.0324 H         1 <0>         0.0651
     33 H4         -0.8122    1.9034    0.7474 H         1 <0>         0.0659
     34 H5         -0.2251   -0.1294   -2.2557 H         1 <0>         0.1215
     35 H6         -0.1193   -2.5893   -2.2274 H         1 <0>         0.1241
     36 H7         -0.1046   -2.5396    2.0372 H         1 <0>         0.1224
     37 H8         -0.2020   -0.0793    2.0088 H         1 <0>         0.1227
     38 H9          2.0422   -4.2855   -0.6198 H         1 <0>         0.0627
     39 H10         1.7399   -4.2782    1.1343 H         1 <0>         0.0572
     40 H11         1.4469   -5.7563    0.1869 H         1 <0>         0.0672
     41 H12        -1.1093   -4.1774    1.7585 H         1 <0>         0.3975
     42 H13        -2.1789   -4.6934    3.1524 H         1 <0>         0.1093
     43 H14        -3.6249   -5.5574    4.9396 H         1 <0>         0.1112
     44 H15        -2.5793   -8.4097    1.0426 H         1 <0>         0.1300
     45 H16        -7.7929   -7.2845    6.7375 H         1 <0>         0.1361
     46 H17        -9.1642   -8.6461    8.2636 H         1 <0>         0.1261
     47 H18        -8.0794  -10.1652    9.8695 H         1 <0>         0.1234
     48 H19        -5.6234  -10.3233    9.9487 H         1 <0>         0.1261
     49 H20        -4.2524   -8.9680    8.4169 H         1 <0>         0.1362
@<TRIPOS>BOND
     1    1    2 1
     2    1   31 1
     3    1   32 1
     4    1   33 1
     5    2    7 ar
     6    2    3 ar
     7    3    4 ar
     8    3   34 1
     9    4    5 ar
    10    4   35 1
    11    5    6 ar
    12    5    8 1
    13    6    7 ar
    14    6   36 1
    15    7   37 1
    16    8    9 1
    17    8   10 1
    18    8   11 1
    19   10   38 1
    20   10   39 1
    21   10   40 1
    22   11   12 am
    23   11   41 1
    24   12   13 2
    25   12   14 1
    26   14   19 ar
    27   14   15 ar
    28   15   16 ar
    29   15   42 1
    30   16   17 ar
    31   16   43 1
    32   17   18 ar
    33   17   21 1
    34   18   19 ar
    35   18   20 1
    36   19   44 1
    37   21   22 1
    38   22   23 2
    39   22   24 2
    40   22   25 1
    41   25   30 ar
    42   25   26 ar
    43   26   27 ar
    44   26   45 1
    45   27   28 ar
    46   27   46 1
    47   28   29 ar
    48   28   47 1
    49   29   30 ar
    50   29   48 1
    51   30   49 1
@<TRIPOS>MOLECULE
ZINC00715947
   63    66     0     0     0
SMALL
USER_CHARGES

@<TRIPOS>ATOM
      1 C1         -0.0187    1.5258    0.0104 C.3       1 <0>        -0.1446
      2 C2          0.0021   -0.0041    0.0020 C.3       1 <0>        -0.0565
      3 C3          0.7405   -0.5019   -1.2441 C.3       1 <0>        -0.1199
      4 C4          2.1664   -0.0309   -1.1994 C.2       1 <0>         0.3318
      5 C5          2.8130    0.1796   -0.0313 C.2       1 <0>        -0.3961
      6 C6          4.2431    0.6533   -0.0907 C.3       1 <0>         0.1403
      7 H1          4.8421   -0.0839   -0.6254 H         1 <0>         0.0491
      8 C7          4.8075    0.8410    1.2856 C.2       1 <0>        -0.2103
      9 C8          4.0591    0.5920    2.4121 C.2       1 <0>         0.1998
     10 N1          2.7927    0.1705    2.3384 N.2       1 <0>        -0.6329
     11 C9          2.1745   -0.0352    1.1987 C.2       1 <0>         0.2915
     12 C10         0.7418   -0.5153    1.2409 C.3       1 <0>        -0.0648
     13 S1          4.7899    0.8350    3.9969 S.3       1 <0>        -0.0420
     14 C11         3.4698    0.3960    5.1609 C.3       1 <0>        -0.1301
     15 C12         3.9694    0.5621    6.5730 C.2       1 <0>         0.5305
     16 O1          5.1043    0.9395    6.7742 O.2       1 <0>        -0.5213
     17 N2          3.1551    0.2913    7.6122 N.am      1 <0>        -0.7259
     18 C13         3.6408    0.4528    8.9849 C.3       1 <0>         0.1620
     19 C14         2.5440    0.0881    9.9519 C.ar      1 <0>        -0.1072
     20 C15         1.6598    1.0556   10.3911 C.ar      1 <0>        -0.1000
     21 C16         0.6538    0.7211   11.2782 C.ar      1 <0>        -0.1223
     22 C17         0.5317   -0.5811   11.7257 C.ar      1 <0>        -0.1136
     23 C18         1.4154   -1.5489   11.2858 C.ar      1 <0>        -0.1224
     24 C19         2.4188   -1.2152   10.3954 C.ar      1 <0>        -0.1001
     25 C20         6.1596    1.2900    1.4306 C.1       1 <0>         0.2803
     26 N3          7.2321    1.6462    1.5457 N.1       1 <0>        -0.4805
     27 C21         4.2990    1.9654   -0.8299 C.ar      1 <0>        -0.0612
     28 C22         3.6037    3.0591   -0.3480 C.ar      1 <0>        -0.0672
     29 C23         3.6529    4.2629   -1.0240 C.ar      1 <0>        -0.1579
     30 C24         4.4011    4.3739   -2.1870 C.ar      1 <0>         0.1011
     31 C25         5.0981    3.2752   -2.6681 C.ar      1 <0>        -0.2092
     32 C26         5.0499    2.0751   -1.9857 C.ar      1 <0>        -0.0538
     33 O2          4.4507    5.5569   -2.8540 O.3       1 <0>        -0.3258
     34 C27         5.2408    5.5981   -4.0440 C.3       1 <0>         0.0316
     35 O3          2.8200    0.1878   -2.3579 O.3       1 <0>        -0.6256
     36 C28        -1.4319   -0.5377    0.0027 C.3       1 <0>        -0.1372
     37 H2          1.0039    1.9031    0.0027 H         1 <0>         0.0703
     38 H3         -0.5459    1.8868   -0.8726 H         1 <0>         0.0496
     39 H4         -0.5289    1.8773    0.9072 H         1 <0>         0.0495
     40 H5          0.7180   -1.5914   -1.2691 H         1 <0>         0.0783
     41 H6          0.2548   -0.1072   -2.1365 H         1 <0>         0.0742
     42 H7          0.2559   -0.1331    2.1386 H         1 <0>         0.0784
     43 H8          0.7234   -1.6051    1.2520 H         1 <0>         0.0794
     44 H9          2.6117    1.0486    5.0000 H         1 <0>         0.1178
     45 H10         3.1733   -0.6404    5.0000 H         1 <0>         0.1177
     46 H11         2.2474   -0.0105    7.4512 H         1 <0>         0.4035
     47 H12         4.4989   -0.1998    9.1457 H         1 <0>         0.0768
     48 H13         3.9373    1.4892    9.1458 H         1 <0>         0.0769
     49 H14         1.7552    2.0730   10.0415 H         1 <0>         0.1248
     50 H15        -0.0365    1.4772   11.6219 H         1 <0>         0.1237
     51 H16        -0.2538   -0.8423   12.4194 H         1 <0>         0.1222
     52 H17         1.3202   -2.5662   11.6358 H         1 <0>         0.1236
     53 H18         3.1068   -1.9721   10.0489 H         1 <0>         0.1247
     54 H19         3.0214    2.9722    0.5574 H         1 <0>         0.1179
     55 H20         3.1091    5.1167   -0.6476 H         1 <0>         0.1177
     56 H21         5.6812    3.3591   -3.5733 H         1 <0>         0.1151
     57 H22         5.5959    1.2206   -2.3574 H         1 <0>         0.1135
     58 H23         5.1943    6.5975   -4.4766 H         1 <0>         0.0914
     59 H24         6.2753    5.3548   -3.8018 H         1 <0>         0.0499
     60 H25         4.8554    4.8734   -4.7612 H         1 <0>         0.0512
     61 H26        -1.9538   -0.1780   -0.8841 H         1 <0>         0.0544
     62 H27        -1.4140   -1.6275   -0.0033 H         1 <0>         0.0536
     63 H28        -1.9494   -0.1877    0.8959 H         1 <0>         0.0543
@<TRIPOS>BOND
     1    1    2 1
     2    1   37 1
     3    1   38 1
     4    1   39 1
     5    2   12 1
     6    2    3 1
     7    2   36 1
     8    3    4 1
     9    3   40 1
    10    3   41 1
    11    4    5 2
    12    4   35 1
    13    5   11 1
    14    5    6 1
    15    6    7 1
    16    6    8 1
    17    6   27 1
    18    8    9 2
    19    8   25 1
    20    9   10 1
    21    9   13 1
    22   10   11 2
    23   11   12 1
    24   12   42 1
    25   12   43 1
    26   13   14 1
    27   14   15 1
    28   14   44 1
    29   14   45 1
    30   15   16 2
    31   15   17 am
    32   17   18 1
    33   17   46 1
    34   18   19 1
    35   18   47 1
    36   18   48 1
    37   19   24 ar
    38   19   20 ar
    39   20   21 ar
    40   20   49 1
    41   21   22 ar
    42   21   50 1
    43   22   23 ar
    44   22   51 1
    45   23   24 ar
    46   23   52 1
    47   24   53 1
    48   25   26 3
    49   27   32 ar
    50   27   28 ar
    51   28   29 ar
    52   28   54 1
    53   29   30 ar
    54   29   55 1
    55   30   31 ar
    56   30   33 1
    57   31   32 ar
    58   31   56 1
    59   32   57 1
    60   33   34 1
    61   34   58 1
    62   34   59 1
    63   34   60 1
    64   36   61 1
    65   36   62 1
    66   36   63 1
@<TRIPOS>MOLECULE
ZINC04236780
   81    84     0     0     0
SMALL
USER_CHARGES
[6-hydroxy-1-(hydroxymethyl)-1,4a-dimethyl-5-[(4-methyl-1-piperidyl)carbonylmethyl]decalin-2-yl] (3-methylsulfanylphenyl)aminoformate
@<TRIPOS>ATOM
      1 C1          5.2377   -9.3539    2.9267 C.3       1 <0>        -0.1483
      2 C2          4.2440   -8.3861    3.5722 C.3       1 <0>        -0.0930
      3 C3          5.0099   -7.2681    4.2833 C.3       1 <0>        -0.1296
      4 C4          4.0128   -6.3204    4.9575 C.3       1 <0>         0.1098
      5 N1          3.0536   -5.8482    3.9497 N.am      1 <0>        -0.6136
      6 C5          2.3243   -6.8410    3.1489 C.3       1 <0>         0.1058
      7 C6          3.3444   -7.7828    2.4911 C.3       1 <0>        -0.1315
      8 C7          2.8424   -4.5297    3.7672 C.2       1 <0>         0.5177
      9 O1          3.4470   -3.7202    4.4382 O.2       1 <0>        -0.5417
     10 C8          1.8552   -4.0612    2.7295 C.3       1 <0>        -0.1396
     11 C9          1.8058   -2.5320    2.7263 C.3       1 <0>        -0.0473
     12 H1          2.8108   -2.1363    2.5799 H         1 <0>         0.0871
     13 C10         1.2525   -2.0368    4.0640 C.3       1 <0>         0.1041
     14 H2          1.8986   -2.3777    4.8730 H         1 <0>         0.0753
     15 C11         1.2031   -0.5076    4.0608 C.3       1 <0>        -0.1500
     16 C12         0.2962   -0.0290    2.9252 C.3       1 <0>        -0.1158
     17 C13         0.8495   -0.5242    1.5875 C.3       1 <0>        -0.0612
     18 H3          1.8546   -0.1285    1.4412 H         1 <0>         0.0773
     19 C14         0.8989   -2.0534    1.5907 C.3       1 <0>        -0.0470
     20 C15         1.4522   -2.5486    0.2530 C.3       1 <0>        -0.1110
     21 C16         0.5454   -2.0700   -0.8825 C.3       1 <0>        -0.1406
     22 C17         0.4959   -0.5408   -0.8858 C.3       1 <0>         0.1248
     23 H4          1.5010   -0.1451   -1.0321 H         1 <0>         0.0864
     24 C18        -0.0574   -0.0456    0.4520 C.3       1 <0>        -0.0439
     25 C19        -0.1068    1.4836    0.4487 C.3       1 <0>        -0.1406
     26 C20        -1.4681   -0.6011    0.6574 C.3       1 <0>         0.0540
     27 O2         -2.3584   -0.0005   -0.2854 O.3       1 <0>        -0.5627
     28 O3         -0.3647   -0.0867   -1.9634 O.3       1 <0>        -0.3299
     29 C21         0.2161    0.1335   -3.1581 C.2       1 <0>         0.6441
     30 O4          1.4094   -0.0490   -3.2963 O.2       1 <0>        -0.5557
     31 N2         -0.5262    0.5561   -4.2006 N.am      1 <0>        -0.6514
     32 C22         0.0568    0.6909   -5.4657 C.ar      1 <0>         0.1775
     33 C23        -0.6814    0.3990   -6.6063 C.ar      1 <0>        -0.1467
     34 C24        -0.1088    0.5367   -7.8560 C.ar      1 <0>        -0.0792
     35 C25         1.2028    0.9539   -7.9762 C.ar      1 <0>        -0.1482
     36 C26         1.9485    1.2425   -6.8392 C.ar      1 <0>        -0.0657
     37 C27         1.3736    1.1105   -5.5820 C.ar      1 <0>        -0.1006
     38 S1          3.6212    1.7745   -6.9928 S.3       1 <0>        -0.1096
     39 C28         3.9132    1.7930   -8.7831 C.3       1 <0>        -0.1463
     40 C29        -0.5118   -2.6088    1.7961 C.3       1 <0>        -0.1576
     41 O5         -0.0651   -2.5555    4.2559 O.3       1 <0>        -0.5592
     42 H5          5.8778   -9.7847    3.6967 H         1 <0>         0.0562
     43 H6          4.6925  -10.1503    2.4202 H         1 <0>         0.0561
     44 H7          5.8509   -8.8164    2.2034 H         1 <0>         0.0546
     45 H8          3.6313   -8.9237    4.2959 H         1 <0>         0.0721
     46 H9          5.6036   -6.7142    3.5561 H         1 <0>         0.0667
     47 H10         5.6678   -7.7003    5.0373 H         1 <0>         0.0754
     48 H11         4.5465   -5.4694    5.3809 H         1 <0>         0.0922
     49 H12         3.4811   -6.8487    5.7489 H         1 <0>         0.0656
     50 H13         1.6580   -7.4131    3.7945 H         1 <0>         0.0707
     51 H14         1.7435   -6.3337    2.3785 H         1 <0>         0.0865
     52 H15         3.9537   -7.2240    1.7808 H         1 <0>         0.0681
     53 H16         2.8173   -8.5814    1.9691 H         1 <0>         0.0766
     54 H17         0.8667   -4.4561    2.9639 H         1 <0>         0.1073
     55 H18         2.1649   -4.4168    1.7468 H         1 <0>         0.0941
     56 H19         0.8089   -0.1548    5.0138 H         1 <0>         0.0649
     57 H20         2.2081   -0.1119    3.9145 H         1 <0>         0.0710
     58 H21         0.2610    1.0604    2.9230 H         1 <0>         0.0659
     59 H22        -0.7088   -0.4247    3.0716 H         1 <0>         0.0775
     60 H23         2.4573   -2.1529    0.1067 H         1 <0>         0.0678
     61 H24         1.4874   -3.6380    0.2553 H         1 <0>         0.0732
     62 H25         0.9395   -2.4228   -1.8356 H         1 <0>         0.0705
     63 H26        -0.4597   -2.4657   -0.7362 H         1 <0>         0.0792
     64 H27         0.8983    1.8793    0.3024 H         1 <0>         0.0504
     65 H28        -0.7528    1.8245   -0.3602 H         1 <0>         0.0704
     66 H29        -0.5010    1.8364    1.4018 H         1 <0>         0.0601
     67 H30        -1.4583   -1.6811    0.5108 H         1 <0>         0.0836
     68 H31        -1.8039   -0.3748    1.6694 H         1 <0>         0.0482
     69 H32        -3.2728   -0.3066   -0.2130 H         1 <0>         0.3708
     70 H33        -1.4645    0.7669   -4.0740 H         1 <0>         0.4195
     71 H34        -1.7054    0.0681   -6.5158 H         1 <0>         0.1310
     72 H35        -0.6863    0.3134   -8.7409 H         1 <0>         0.1324
     73 H36         1.6489    1.0562   -8.9544 H         1 <0>         0.1254
     74 H37         1.9504    1.3343   -4.6968 H         1 <0>         0.1472
     75 H38         3.2171    2.4845   -9.2577 H         1 <0>         0.0845
     76 H39         4.9359    2.1139   -8.9811 H         1 <0>         0.1102
     77 H40         3.7621    0.7916   -9.1862 H         1 <0>         0.0845
     78 H41        -0.9215   -2.9240    0.8365 H         1 <0>         0.0543
     79 H42        -0.4712   -3.4630    2.4720 H         1 <0>         0.0747
     80 H43        -1.1478   -1.8352    2.2263 H         1 <0>         0.0757
     81 H44        -0.4786   -2.2817    5.0860 H         1 <0>         0.3685
@<TRIPOS>BOND
     1    1    2 1
     2    1   42 1
     3    1   43 1
     4    1   44 1
     5    2    7 1
     6    2    3 1
     7    2   45 1
     8    3    4 1
     9    3   46 1
    10    3   47 1
    11    4    5 1
    12    4   48 1
    13    4   49 1
    14    5    6 1
    15    5    8 am
    16    6    7 1
    17    6   50 1
    18    6   51 1
    19    7   52 1
    20    7   53 1
    21    8    9 2
    22    8   10 1
    23   10   11 1
    24   10   54 1
    25   10   55 1
    26   11   12 1
    27   11   19 1
    28   11   13 1
    29   13   14 1
    30   13   15 1
    31   13   41 1
    32   15   16 1
    33   15   56 1
    34   15   57 1
    35   16   17 1
    36   16   58 1
    37   16   59 1
    38   17   18 1
    39   17   24 1
    40   17   19 1
    41   19   20 1
    42   19   40 1
    43   20   21 1
    44   20   60 1
    45   20   61 1
    46   21   22 1
    47   21   62 1
    48   21   63 1
    49   22   23 1
    50   22   24 1
    51   22   28 1
    52   24   25 1
    53   24   26 1
    54   25   64 1
    55   25   65 1
    56   25   66 1
    57   26   27 1
    58   26   67 1
    59   26   68 1
    60   27   69 1
    61   28   29 1
    62   29   30 2
    63   29   31 am
    64   31   32 1
    65   31   70 1
    66   32   37 ar
    67   32   33 ar
    68   33   34 ar
    69   33   71 1
    70   34   35 ar
    71   34   72 1
    72   35   36 ar
    73   35   73 1
    74   36   37 ar
    75   36   38 1
    76   37   74 1
    77   38   39 1
    78   39   75 1
    79   39   76 1
    80   39   77 1
    81   40   78 1
    82   40   79 1
    83   40   80 1
    84   41   81 1
@<TRIPOS>MOLECULE
ZINC09777247
   79    83     0     0     0
SMALL
USER_CHARGES
N'-(2,3-dimethylcyclohexyl)-isopentyl-N-(3-methylsulfanylphenyl)-oxo-BLAHdicarboxamide
@<TRIPOS>ATOM
      1 C1         -9.5559   -2.4039    6.6998 C.3       1 <0>        -0.1506
      2 C2         -9.2264   -1.1757    5.8490 C.3       1 <0>        -0.0865
      3 H1         -9.0159   -1.4881    4.8262 H         1 <0>         0.0663
      4 C3        -10.4188   -0.2170    5.8543 C.3       1 <0>        -0.1167
      5 C4        -10.0894    1.0113    5.0035 C.3       1 <0>        -0.1176
      6 C5         -8.8631    1.7192    5.5832 C.3       1 <0>        -0.1308
      7 C6         -7.6708    0.7605    5.5779 C.3       1 <0>         0.1532
      8 H2         -6.7972    1.2648    5.9909 H         1 <0>         0.0903
      9 C7         -8.0002   -0.4678    6.4287 C.3       1 <0>        -0.0936
     10 H3         -8.2107   -0.1554    7.4515 H         1 <0>         0.0861
     11 C8         -6.8079   -1.4265    6.4234 C.3       1 <0>        -0.1503
     12 N1         -7.3878    0.3406    4.2032 N.am      1 <0>        -0.7103
     13 C9         -6.6108    1.1059    3.4113 C.2       1 <0>         0.5179
     14 O1         -6.1459    2.1421    3.8367 O.2       1 <0>        -0.5144
     15 C10        -6.3198    0.6740    1.9971 C.3       1 <0>         0.1579
     16 H4         -7.1781    0.1603    1.5642 H         1 <0>         0.1104
     17 C11        -5.0966   -0.1877    1.9417 C.3       1 <0>         0.1049
     18 C12        -3.9372    0.3829    2.7378 C.2       1 <0>        -0.1378
     19 C13        -2.9454   -0.4848    2.6006 C.2       1 <0>        -0.1847
     20 C14        -3.4905   -1.5655    1.6587 C.3       1 <0>         0.1105
     21 H5         -2.9797   -2.5283    1.6690 H         1 <0>         0.1570
     22 O2         -4.9299   -1.5828    2.0373 O.3       1 <0>        -0.3125
     23 C15        -3.5224   -0.8124    0.2724 C.3       1 <0>        -0.1096
     24 H6         -3.5897   -1.5186   -0.5551 H         1 <0>         0.1193
     25 C16        -4.7895   -0.0057    0.4011 C.3       1 <0>        -0.1681
     26 H7         -5.5816   -0.4855   -0.1737 H         1 <0>         0.1266
     27 C17        -4.9279    1.4566    0.2767 C.2       1 <0>         0.5571
     28 O3         -4.2931    2.1819   -0.4594 O.2       1 <0>        -0.4784
     29 N2         -5.9135    1.8414    1.1533 N.am      1 <0>        -0.6085
     30 C18        -6.4804    3.1890    1.2476 C.3       1 <0>         0.1246
     31 C19        -7.7421    3.2730    0.3863 C.3       1 <0>        -0.1308
     32 C20        -8.2690    4.7094    0.3923 C.3       1 <0>        -0.0941
     33 C21        -9.4560    4.8212   -0.5665 C.3       1 <0>        -0.1461
     34 C22        -8.7188    5.0817    1.8065 C.3       1 <0>        -0.1496
     35 C23        -2.3225    0.0859    0.1169 C.2       1 <0>         0.5199
     36 O4         -2.3140    1.1818    0.6365 O.2       1 <0>        -0.4726
     37 N3         -1.2587   -0.3285   -0.5995 N.am      1 <0>        -0.6727
     38 C24        -0.1028    0.4581   -0.6544 C.ar      1 <0>         0.1709
     39 C25         0.6725    0.4754   -1.8075 C.ar      1 <0>        -0.1515
     40 C26         1.8143    1.2513   -1.8629 C.ar      1 <0>        -0.0786
     41 C27         2.1895    2.0125   -0.7728 C.ar      1 <0>        -0.1512
     42 C28         1.4186    1.9999    0.3838 C.ar      1 <0>        -0.0635
     43 C29         0.2704    1.2209    0.4422 C.ar      1 <0>        -0.1005
     44 S1          1.8972    2.9714    1.7737 S.3       1 <0>        -0.1117
     45 C30         3.4210    3.7926    1.2313 C.3       1 <0>        -0.1455
     46 H8        -10.4295   -2.9083    6.2869 H         1 <0>         0.0550
     47 H9         -8.7064   -3.0870    6.6961 H         1 <0>         0.0594
     48 H10        -9.7664   -2.0916    7.7227 H         1 <0>         0.0556
     49 H11       -10.6293    0.0954    6.8771 H         1 <0>         0.0643
     50 H12       -11.2924   -0.7213    5.4413 H         1 <0>         0.0633
     51 H13       -10.9388    1.6943    5.0073 H         1 <0>         0.0627
     52 H14        -9.8788    0.6989    3.9807 H         1 <0>         0.0598
     53 H15        -9.0736    2.0316    6.6060 H         1 <0>         0.0729
     54 H16        -8.6284    2.5942    4.9771 H         1 <0>         0.0685
     55 H17        -5.9343   -0.9222    6.8364 H         1 <0>         0.0551
     56 H18        -7.0425   -2.3015    7.0295 H         1 <0>         0.0613
     57 H19        -6.5973   -1.7389    5.4006 H         1 <0>         0.0570
     58 H20        -7.7597   -0.4881    3.8629 H         1 <0>         0.4007
     59 H21        -3.9237    1.3050    3.2999 H         1 <0>         0.1557
     60 H22        -1.9661   -0.4408    3.0538 H         1 <0>         0.1536
     61 H23        -6.7340    3.4047    2.2855 H         1 <0>         0.0991
     62 H24        -5.7496    3.9161    0.8935 H         1 <0>         0.0844
     63 H25        -7.5047    2.9774   -0.6357 H         1 <0>         0.0636
     64 H26        -8.5029    2.6052    0.7903 H         1 <0>         0.0618
     65 H27        -7.4782    5.3878    0.0721 H         1 <0>         0.0722
     66 H28       -10.2468    4.1428   -0.2464 H         1 <0>         0.0534
     67 H29        -9.8314    5.8445   -0.5622 H         1 <0>         0.0559
     68 H30        -9.1356    4.5560   -1.5740 H         1 <0>         0.0537
     69 H31        -7.8731    5.0021    2.4895 H         1 <0>         0.0579
     70 H32        -9.0942    6.1051    1.8107 H         1 <0>         0.0548
     71 H33        -9.5096    4.4033    2.1266 H         1 <0>         0.0531
     72 H34        -1.2945   -1.1720   -1.0770 H         1 <0>         0.4110
     73 H35         0.3845   -0.1219   -2.6600 H         1 <0>         0.1282
     74 H36         2.4149    1.2627   -2.7604 H         1 <0>         0.1302
     75 H37         3.0826    2.6180   -0.8193 H         1 <0>         0.1241
     76 H38        -0.3304    1.2089    1.3396 H         1 <0>         0.1390
     77 H39         4.1687    3.0408    0.9786 H         1 <0>         0.0843
     78 H40         3.2112    4.4054    0.3546 H         1 <0>         0.0845
     79 H41         3.7986    4.4251    2.0347 H         1 <0>         0.1099
@<TRIPOS>BOND
     1    1    2 1
     2    1   46 1
     3    1   47 1
     4    1   48 1
     5    2    3 1
     6    2    9 1
     7    2    4 1
     8    4    5 1
     9    4   49 1
    10    4   50 1
    11    5    6 1
    12    5   51 1
    13    5   52 1
    14    6    7 1
    15    6   53 1
    16    6   54 1
    17    7    8 1
    18    7    9 1
    19    7   12 1
    20    9   10 1
    21    9   11 1
    22   11   55 1
    23   11   56 1
    24   11   57 1
    25   12   13 am
    26   12   58 1
    27   13   14 2
    28   13   15 1
    29   15   16 1
    30   15   29 1
    31   15   17 1
    32   17   22 1
    33   17   25 1
    34   17   18 1
    35   18   19 2
    36   18   59 1
    37   19   20 1
    38   19   60 1
    39   20   21 1
    40   20   22 1
    41   20   23 1
    42   23   24 1
    43   23   25 1
    44   23   35 1
    45   25   26 1
    46   25   27 1
    47   27   28 2
    48   27   29 am
    49   29   30 1
    50   30   31 1
    51   30   61 1
    52   30   62 1
    53   31   32 1
    54   31   63 1
    55   31   64 1
    56   32   33 1
    57   32   34 1
    58   32   65 1
    59   33   66 1
    60   33   67 1
    61   33   68 1
    62   34   69 1
    63   34   70 1
    64   34   71 1
    65   35   36 2
    66   35   37 am
    67   37   38 1
    68   37   72 1
    69   38   43 ar
    70   38   39 ar
    71   39   40 ar
    72   39   73 1
    73   40   41 ar
    74   40   74 1
    75   41   42 ar
    76   41   75 1
    77   42   43 ar
    78   42   44 1
    79   43   76 1
    80   44   45 1
    81   45   77 1
    82   45   78 1
    83   45   79 1
@<TRIPOS>MOLECULE
ZINC33707599
   80    85     0     0     0
SMALL
USER_CHARGES
N-(4-isopropylphenyl)-N-[(1S,2S)-2-methylcyclohexyl]-oxo-[[(2S)-tetrahydrofuran-2-yl]methyl]BLAHdicarboxamide
@<TRIPOS>ATOM
      1 C1          6.0816   -3.0508    0.2931 C.3       1 <0>        -0.1486
      2 C2          6.3717   -1.7293    1.0075 C.3       1 <0>        -0.0954
      3 H1          6.2423   -1.8625    2.0917 H         1 <0>         0.0767
      4 C3          7.8097   -1.2963    0.7148 C.3       1 <0>        -0.1126
      5 C4          8.0998    0.0252    1.4292 C.3       1 <0>        -0.1227
      6 C5          7.1319    1.0990    0.9282 C.3       1 <0>        -0.1179
      7 C6          5.6939    0.6660    1.2209 C.3       1 <0>        -0.1270
      8 C7          5.4038   -0.6555    0.5066 C.3       1 <0>         0.1573
      9 H2          5.4905   -0.5339   -0.5832 H         1 <0>         0.0863
     10 N1          4.0269   -1.0701    0.7868 N.am      1 <0>        -0.7281
     11 C8          3.0135   -0.5918    0.0381 C.2       1 <0>         0.5183
     12 O1          3.2413    0.1818   -0.8677 O.2       1 <0>        -0.5272
     13 C9          1.5971   -1.0182    0.3264 C.3       1 <0>         0.1656
     14 H3          1.5222   -1.0843    1.4219 H         1 <0>         0.1153
     15 C10         1.2705   -2.2979   -0.3742 C.3       1 <0>         0.1435
     16 C11         1.7124   -2.2987   -1.8261 C.2       1 <0>        -0.1588
     17 C12         1.3691   -3.4852   -2.3057 C.2       1 <0>        -0.1980
     18 C13         0.6545   -4.1906   -1.1464 C.3       1 <0>         0.1205
     19 H4          0.6032   -5.2886   -1.1895 H         1 <0>         0.1578
     20 O2          1.3904   -3.6428    0.0258 O.3       1 <0>        -0.3117
     21 C14        -0.7009   -3.4076   -1.0793 C.3       1 <0>        -0.1170
     22 H5         -1.5427   -3.9413   -0.6139 H         1 <0>         0.1246
     23 C15        -0.3045   -2.1635   -0.3256 C.3       1 <0>        -0.1761
     24 H6         -1.0009   -2.1757    0.5258 H         1 <0>         0.1380
     25 C16        -0.4628   -0.7672   -0.7706 C.2       1 <0>         0.5400
     26 O3         -1.3729   -0.3203   -1.4362 O.2       1 <0>        -0.4641
     27 N2          0.6169   -0.0682   -0.2873 N.am      1 <0>        -0.6041
     28 C17         0.7858    1.3849   -0.3663 C.3       1 <0>         0.1295
     29 C18         0.1810    2.0370    0.8786 C.3       1 <0>         0.0539
     30 H7         -0.8329    1.6333    1.0168 H         1 <0>         0.0696
     31 C19         0.2354    3.5763    0.7596 C.3       1 <0>        -0.1469
     32 C20         0.5447    4.0532    2.1963 C.3       1 <0>        -0.1542
     33 C21         0.6406    2.7457    3.0134 C.3       1 <0>         0.0472
     34 O4          0.9760    1.7288    2.0443 O.3       1 <0>        -0.3675
     35 C22        -1.1907   -3.0686   -2.4636 C.2       1 <0>         0.5034
     36 O5         -1.2232   -1.9126   -2.8292 O.2       1 <0>        -0.4703
     37 N3         -1.5926   -4.0500   -3.2954 N.am      1 <0>        -0.6879
     38 C23        -2.1502   -3.7292   -4.5380 C.ar      1 <0>         0.1510
     39 C24        -2.9159   -2.5796   -4.6813 C.ar      1 <0>        -0.1187
     40 C25        -3.4612   -2.2636   -5.9102 C.ar      1 <0>        -0.0940
     41 C26        -3.2538   -3.0958   -6.9949 C.ar      1 <0>        -0.0940
     42 C27        -2.4958   -4.2438   -6.8544 C.ar      1 <0>        -0.1001
     43 C28        -1.9438   -4.5629   -5.6293 C.ar      1 <0>        -0.1465
     44 C29        -3.8555   -2.7511   -8.3329 C.3       1 <0>        -0.0552
     45 C30        -5.3785   -2.6816   -8.2045 C.3       1 <0>        -0.1458
     46 C31        -3.3205   -1.3955   -8.7988 C.3       1 <0>        -0.1465
     47 H8          6.7775   -3.8228    0.6533 H         1 <0>         0.0569
     48 H9          6.2109   -2.9176   -0.7911 H         1 <0>         0.0538
     49 H10         5.0478   -3.3621    0.5035 H         1 <0>         0.0592
     50 H11         8.5056   -2.0683    1.0750 H         1 <0>         0.0677
     51 H12         7.9391   -1.1631   -0.3694 H         1 <0>         0.0645
     52 H13         7.9704   -0.1080    2.5134 H         1 <0>         0.0630
     53 H14         9.1336    0.3365    1.2189 H         1 <0>         0.0640
     54 H15         7.3405    2.0491    1.4418 H         1 <0>         0.0645
     55 H16         7.2613    1.2322   -0.1560 H         1 <0>         0.0633
     56 H17         5.5646    0.5329    2.3051 H         1 <0>         0.0645
     57 H18         4.9980    1.4380    0.8607 H         1 <0>         0.0671
     58 H19         3.8202   -1.7718    1.6083 H         1 <0>         0.4204
     59 H20         2.2127   -1.5663   -2.4767 H         1 <0>         0.1567
     60 H21         1.6200   -3.7528   -3.3427 H         1 <0>         0.1590
     61 H22         1.8573    1.6269   -0.4232 H         1 <0>         0.1072
     62 H23         0.2759    1.7651   -1.2638 H         1 <0>         0.0965
     63 H24         1.0258    3.8615    0.0497 H         1 <0>         0.0794
     64 H25        -0.7340    3.9507    0.3989 H         1 <0>         0.0789
     65 H26         1.4908    4.6143    2.2007 H         1 <0>         0.0758
     66 H27        -0.2689    4.7035    2.5499 H         1 <0>         0.0771
     67 H28         1.4209    2.8499    3.7817 H         1 <0>         0.0919
     68 H29        -0.3263    2.5442    3.4977 H         1 <0>         0.0587
     69 H30        -1.4823   -5.1031   -2.9974 H         1 <0>         0.4282
     70 H31        -3.0816   -1.9313   -3.8335 H         1 <0>         0.1338
     71 H32        -4.0536   -1.3677   -6.0232 H         1 <0>         0.1215
     72 H33        -2.3357   -4.8917   -7.7035 H         1 <0>         0.1229
     73 H34        -1.3525   -5.4600   -5.5201 H         1 <0>         0.1231
     74 H35        -3.5764   -3.5318   -9.0558 H         1 <0>         0.0765
     75 H36        -5.8177   -2.4300   -9.1811 H         1 <0>         0.0582
     76 H37        -5.6497   -1.9086   -7.4704 H         1 <0>         0.0570
     77 H38        -5.7631   -3.6563   -7.8697 H         1 <0>         0.0559
     78 H39        -3.7597   -1.1440   -9.7754 H         1 <0>         0.0583
     79 H40        -2.2255   -1.4456   -8.8912 H         1 <0>         0.0557
     80 H41        -3.5916   -0.6224   -8.0648 H         1 <0>         0.0572
@<TRIPOS>BOND
     1    1    2 1
     2    1   47 1
     3    1   48 1
     4    1   49 1
     5    2    3 1
     6    2    8 1
     7    2    4 1
     8    4    5 1
     9    4   50 1
    10    4   51 1
    11    5    6 1
    12    5   52 1
    13    5   53 1
    14    6    7 1
    15    6   54 1
    16    6   55 1
    17    7    8 1
    18    7   56 1
    19    7   57 1
    20    8    9 1
    21    8   10 1
    22   10   11 am
    23   10   58 1
    24   11   12 2
    25   11   13 1
    26   13   14 1
    27   13   27 1
    28   13   15 1
    29   15   20 1
    30   15   23 1
    31   15   16 1
    32   16   17 2
    33   16   59 1
    34   17   18 1
    35   17   60 1
    36   18   19 1
    37   18   20 1
    38   18   21 1
    39   21   22 1
    40   21   23 1
    41   21   35 1
    42   23   24 1
    43   23   25 1
    44   25   26 2
    45   25   27 am
    46   27   28 1
    47   28   29 1
    48   28   61 1
    49   28   62 1
    50   29   30 1
    51   29   34 1
    52   29   31 1
    53   31   32 1
    54   31   63 1
    55   31   64 1
    56   32   33 1
    57   32   65 1
    58   32   66 1
    59   33   34 1
    60   33   67 1
    61   33   68 1
    62   35   36 2
    63   35   37 am
    64   37   38 1
    65   37   69 1
    66   38   43 ar
    67   38   39 ar
    68   39   40 ar
    69   39   70 1
    70   40   41 ar
    71   40   71 1
    72   41   42 ar
    73   41   44 1
    74   42   43 ar
    75   42   72 1
    76   43   73 1
    77   44   45 1
    78   44   46 1
    79   44   74 1
    80   45   75 1
    81   45   76 1
    82   45   77 1
    83   46   78 1
    84   46   79 1
    85   46   80 1
@<TRIPOS>MOLECULE
ZINC39328018
   70    73     0     0     0
SMALL
USER_CHARGES

@<TRIPOS>ATOM
      1 C1         -0.2255    1.9091   -0.7446 C.3       1 <0>        -0.1442
      2 C2         -0.1050    0.3841   -0.7178 C.3       1 <0>        -0.0586
      3 C3          0.7996   -0.0356    0.4425 C.3       1 <0>        -0.1448
      4 C4         -1.4714   -0.2247   -0.5352 C.ar      1 <0>        -0.0698
      5 C5         -2.2173    0.0758    0.5891 C.ar      1 <0>        -0.1121
      6 C6         -3.4707   -0.4826    0.7566 C.ar      1 <0>        -0.1046
      7 C7         -3.9783   -1.3412   -0.2005 C.ar      1 <0>        -0.0896
      8 C8         -3.2328   -1.6410   -1.3253 C.ar      1 <0>        -0.0896
      9 C9         -1.9812   -1.0792   -1.4948 C.ar      1 <0>        -0.1139
     10 C10        -5.3443   -1.9508   -0.0174 C.3       1 <0>         0.0979
     11 H1         -5.7744   -1.5999    0.9206 H         1 <0>         0.1035
     12 C11        -5.2215   -3.4499    0.0192 C.2       1 <0>        -0.2619
     13 C12        -5.5769   -4.2015   -1.0511 C.2       1 <0>         0.4326
     14 O1         -6.0500   -3.6393   -2.1786 O.3       1 <0>        -0.2269
     15 C13        -6.5281   -2.3854   -2.1508 C.2       1 <0>         0.1435
     16 C14        -6.2324   -1.5382   -1.1591 C.2       1 <0>        -0.1771
     17 C15        -6.7670   -0.2268   -1.1859 C.2       1 <0>         0.5236
     18 O2         -7.7320    0.0508   -0.4990 O.2       1 <0>        -0.4845
     19 O3         -6.2061    0.7144   -1.9732 O.3       1 <0>        -0.3331
     20 C16        -6.7970    2.0154   -1.9506 C.3       1 <0>         0.0301
     21 C17        -7.4229   -1.9190   -3.2702 C.3       1 <0>        -0.0667
     22 S1         -6.4229   -1.5943   -4.7484 S.3       1 <0>        -0.0030
     23 C18        -7.5978   -1.0650   -5.9500 C.ar      1 <0>         0.1522
     24 C19        -7.1670   -0.7271   -7.2457 C.ar      1 <0>        -0.0580
     25 C20        -8.1187   -0.3175   -8.1887 C.ar      1 <0>        -0.0069
     26 C21        -9.4395   -0.2599   -7.7954 C.ar      1 <0>        -0.1299
     27 C22        -9.7872   -0.5976   -6.4952 C.ar      1 <0>         0.1849
     28 N1         -8.8819   -0.9935   -5.6276 N.ar      1 <0>        -0.4823
     29 C23       -11.2426   -0.4788   -6.1225 C.3       1 <0>        -0.0750
     30 C24       -12.0341   -1.6827   -6.5184 C.3       1 <0>        -0.1157
     31 C25       -12.4572   -1.8176   -7.9673 C.3       1 <0>        -0.1208
     32 C26       -11.2589   -2.2352   -8.8396 C.3       1 <0>        -0.1253
     33 C27       -10.8395   -1.0037   -9.6878 C.3       1 <0>        -0.1164
     34 C28       -10.5265    0.1589   -8.7478 C.3       1 <0>        -0.0886
     35 C29        -5.7801   -0.8000   -7.5946 C.1       1 <0>         0.2473
     36 N2         -4.6798   -0.8579   -7.8714 N.1       1 <0>        -0.3857
     37 N3         -5.4510   -5.5668   -0.9838 N.pl3     1 <0>        -0.8249
     38 C30        -4.7228   -4.0902    1.1990 C.1       1 <0>         0.2730
     39 N4         -4.3271   -4.5982    2.1349 N.1       1 <0>        -0.4341
     40 H2          0.7628    2.3495   -0.8767 H         1 <0>         0.0580
     41 H3         -0.8700    2.2082   -1.5713 H         1 <0>         0.0565
     42 H4         -0.6553    2.2562    0.1950 H         1 <0>         0.0564
     43 H5          0.3248    0.0371   -1.6575 H         1 <0>         0.0774
     44 H6          0.3698    0.3114    1.3822 H         1 <0>         0.0566
     45 H7          0.8855   -1.1221    0.4616 H         1 <0>         0.0555
     46 H8          1.7879    0.4047    0.3105 H         1 <0>         0.0583
     47 H9         -1.8207    0.7466    1.3369 H         1 <0>         0.1215
     48 H10        -4.0532   -0.2484    1.6354 H         1 <0>         0.1203
     49 H11        -3.6292   -2.3121   -2.0729 H         1 <0>         0.1143
     50 H12        -1.4002   -1.3105   -2.3754 H         1 <0>         0.1213
     51 H13        -7.8369    1.9478   -2.2703 H         1 <0>         0.0615
     52 H14        -6.7535    2.4166   -0.9380 H         1 <0>         0.0641
     53 H15        -6.2513    2.6741   -2.6261 H         1 <0>         0.1055
     54 H16        -8.1595   -2.6911   -3.4922 H         1 <0>         0.1300
     55 H17        -7.9344   -1.0046   -2.9695 H         1 <0>         0.1245
     56 H18        -7.8267   -0.0547   -9.1947 H         1 <0>         0.1513
     57 H19       -11.3205   -0.3445   -5.0436 H         1 <0>         0.0873
     58 H20       -11.6626    0.3975   -6.6162 H         1 <0>         0.0924
     59 H21       -11.4469   -2.5643   -6.2613 H         1 <0>         0.0604
     60 H22       -12.9361   -1.7018   -5.9067 H         1 <0>         0.0690
     61 H23       -13.2403   -2.5717   -8.0456 H         1 <0>         0.0673
     62 H24       -12.8444   -0.8618   -8.3204 H         1 <0>         0.0689
     63 H25       -10.4297   -2.5456   -8.2038 H         1 <0>         0.0623
     64 H26       -11.5484   -3.0551   -9.4968 H         1 <0>         0.0648
     65 H27        -9.9535   -1.2484  -10.2736 H         1 <0>         0.0641
     66 H28       -11.6551   -0.7247  -10.3548 H         1 <0>         0.0729
     67 H29       -11.4217    0.4244   -8.1855 H         1 <0>         0.0916
     68 H30       -10.1912    1.0178   -9.3291 H         1 <0>         0.0798
     69 H31        -5.1109   -5.9833   -0.1765 H         1 <0>         0.4281
     70 H32        -5.7021   -6.1151   -1.7436 H         1 <0>         0.4138
@<TRIPOS>BOND
     1    1    2 1
     2    1   40 1
     3    1   41 1
     4    1   42 1
     5    2    3 1
     6    2    4 1
     7    2   43 1
     8    3   44 1
     9    3   45 1
    10    3   46 1
    11    4    9 ar
    12    4    5 ar
    13    5    6 ar
    14    5   47 1
    15    6    7 ar
    16    6   48 1
    17    7    8 ar
    18    7   10 1
    19    8    9 ar
    20    8   49 1
    21    9   50 1
    22   10   11 1
    23   10   16 1
    24   10   12 1
    25   12   13 2
    26   12   38 1
    27   13   14 1
    28   13   37 1
    29   14   15 1
    30   15   16 2
    31   15   21 1
    32   16   17 1
    33   17   18 2
    34   17   19 1
    35   19   20 1
    36   20   51 1
    37   20   52 1
    38   20   53 1
    39   21   22 1
    40   21   54 1
    41   21   55 1
    42   22   23 1
    43   23   28 ar
    44   23   24 ar
    45   24   25 ar
    46   24   35 1
    47   25   26 ar
    48   25   56 1
    49   26   34 1
    50   26   27 ar
    51   27   28 ar
    52   27   29 1
    53   29   30 1
    54   29   57 1
    55   29   58 1
    56   30   31 1
    57   30   59 1
    58   30   60 1
    59   31   32 1
    60   31   61 1
    61   31   62 1
    62   32   33 1
    63   32   63 1
    64   32   64 1
    65   33   34 1
    66   33   65 1
    67   33   66 1
    68   34   67 1
    69   34   68 1
    70   35   36 3
    71   37   69 1
    72   37   70 1
    73   38   39 3
@<TRIPOS>MOLECULE
ZINC01880334
   64    69     0     0     0
SMALL
USER_CHARGES

@<TRIPOS>ATOM
      1 C1          5.7035    0.6619   -3.8202 C.ar      1 <0>        -0.1098
      2 C2          6.8771    1.2464   -3.3821 C.ar      1 <0>        -0.1214
      3 C3          7.8758    0.4641   -2.8330 C.ar      1 <0>        -0.0998
      4 C4          7.7008   -0.9026   -2.7217 C.ar      1 <0>        -0.1135
      5 C5          6.5268   -1.4869   -3.1590 C.ar      1 <0>        -0.0998
      6 C6          5.5287   -0.7048   -3.7093 C.ar      1 <0>        -0.1215
      7 C7          8.7900   -1.7555   -2.1241 C.3       1 <0>         0.1621
      8 N1          8.5904   -1.8590   -0.6765 N.am      1 <0>        -0.7193
      9 C8          9.4496   -2.5781    0.0726 C.2       1 <0>         0.5336
     10 O1         10.3880   -3.1396   -0.4518 O.2       1 <0>        -0.5189
     11 C9          9.2442   -2.6846    1.5617 C.3       1 <0>        -0.1563
     12 S1         10.5553   -3.7113    2.2811 S.3       1 <0>         0.1106
     13 C10        10.1794   -3.7385    4.0023 C.ar      1 <0>         0.3426
     14 N2          9.1135   -3.0823    4.4465 N.ar      1 <0>        -0.5915
     15 C11         8.7810   -3.0663    5.7265 C.ar      1 <0>         0.5038
     16 C12         9.5889   -3.7736    6.6608 C.ar      1 <0>        -0.2502
     17 C13         9.4035   -3.8835    8.1203 C.2       1 <0>        -0.0563
     18 C14        10.3086   -4.6189    8.7821 C.2       1 <0>        -0.1502
     19 S2         11.4485   -5.1931    7.5411 S.3       1 <0>         0.1426
     20 C15        10.6984   -4.4447    6.1215 C.ar      1 <0>         0.1629
     21 N3         10.9633   -4.4185    4.8285 N.ar      1 <0>        -0.4909
     22 C16        10.4101   -4.9485   10.2471 C.3       1 <0>         0.0648
     23 H1         11.4409   -4.8277   10.5801 H         1 <0>         0.1357
     24 S3          9.3308   -3.8081   11.1672 S.3       1 <0>        -0.1919
     25 C17         7.8501   -3.7656   10.1091 C.3       1 <0>        -0.0172
     26 H2          7.4773   -4.7791    9.9610 H         1 <0>         0.1073
     27 C18         8.2282   -3.1591    8.7650 C.3       1 <0>        -0.0721
     28 C19         6.7843   -2.9256   10.7645 C.ar      1 <0>        -0.0740
     29 C20         7.0272   -1.5932   11.0412 C.ar      1 <0>        -0.1029
     30 C21         6.0496   -0.8227   11.6424 C.ar      1 <0>        -0.1167
     31 C22         4.8289   -1.3845   11.9665 C.ar      1 <0>        -0.1115
     32 C23         4.5856   -2.7167   11.6890 C.ar      1 <0>        -0.1168
     33 C24         5.5617   -3.4861   11.0839 C.ar      1 <0>        -0.1002
     34 C25         9.9646   -6.3692   10.4799 C.ar      1 <0>        -0.0762
     35 C26        10.7556   -7.2294   11.2183 C.ar      1 <0>        -0.1006
     36 C27        10.3470   -8.5326   11.4319 C.ar      1 <0>        -0.1122
     37 C28         9.1472   -8.9755   10.9073 C.ar      1 <0>        -0.1127
     38 C29         8.3557   -8.1151   10.1696 C.ar      1 <0>        -0.1136
     39 C30         8.7623   -6.8107    9.9597 C.ar      1 <0>        -0.1098
     40 N4          7.6635   -2.3712    6.1515 N.pl3     1 <0>        -0.8410
     41 H3          4.9214    1.2737   -4.2450 H         1 <0>         0.1244
     42 H4          7.0138    2.3142   -3.4690 H         1 <0>         0.1253
     43 H5          8.7930    0.9207   -2.4914 H         1 <0>         0.1247
     44 H6          6.3902   -2.5547   -3.0723 H         1 <0>         0.1247
     45 H7          4.6116   -1.1614   -4.0513 H         1 <0>         0.1252
     46 H8          8.7567   -2.7507   -2.5675 H         1 <0>         0.0807
     47 H9          9.7597   -1.3003   -2.3255 H         1 <0>         0.0807
     48 H10         7.8398   -1.4099   -0.2571 H         1 <0>         0.4048
     49 H11         9.2775   -1.6894    2.0052 H         1 <0>         0.1253
     50 H12         8.2745   -3.1398    1.7631 H         1 <0>         0.1250
     51 H13         8.4944   -2.1122    8.9111 H         1 <0>         0.0957
     52 H14         7.3686   -3.2143    8.0971 H         1 <0>         0.0976
     53 H15         7.9810   -1.1543   10.7880 H         1 <0>         0.1268
     54 H16         6.2397    0.2181   11.8592 H         1 <0>         0.1257
     55 H17         4.0653   -0.7827   12.4369 H         1 <0>         0.1246
     56 H18         3.6319   -3.1557   11.9425 H         1 <0>         0.1259
     57 H19         5.3703   -4.5259   10.8636 H         1 <0>         0.1233
     58 H20        11.6930   -6.8834   11.6282 H         1 <0>         0.1258
     59 H21        10.9653   -9.2048   12.0082 H         1 <0>         0.1268
     60 H22         8.8283   -9.9939   11.0736 H         1 <0>         0.1245
     61 H23         7.4185   -8.4612    9.7595 H         1 <0>         0.1233
     62 H24         8.1422   -6.1374    9.3865 H         1 <0>         0.1174
     63 H25         6.9068   -2.2582    5.5552 H         1 <0>         0.4091
     64 H26         7.6363   -1.9968    7.0459 H         1 <0>         0.4153
@<TRIPOS>BOND
     1    1    6 ar
     2    1    2 ar
     3    1   41 1
     4    2    3 ar
     5    2   42 1
     6    3    4 ar
     7    3   43 1
     8    4    5 ar
     9    4    7 1
    10    5    6 ar
    11    5   44 1
    12    6   45 1
    13    7    8 1
    14    7   46 1
    15    7   47 1
    16    8    9 am
    17    8   48 1
    18    9   10 2
    19    9   11 1
    20   11   12 1
    21   11   49 1
    22   11   50 1
    23   12   13 1
    24   13   21 ar
    25   13   14 ar
    26   14   15 ar
    27   15   16 ar
    28   15   40 1
    29   16   20 ar
    30   16   17 1
    31   17   27 1
    32   17   18 2
    33   18   19 1
    34   18   22 1
    35   19   20 1
    36   20   21 ar
    37   22   23 1
    38   22   24 1
    39   22   34 1
    40   24   25 1
    41   25   26 1
    42   25   27 1
    43   25   28 1
    44   27   51 1
    45   27   52 1
    46   28   33 ar
    47   28   29 ar
    48   29   30 ar
    49   29   53 1
    50   30   31 ar
    51   30   54 1
    52   31   32 ar
    53   31   55 1
    54   32   33 ar
    55   32   56 1
    56   33   57 1
    57   34   39 ar
    58   34   35 ar
    59   35   36 ar
    60   35   58 1
    61   36   37 ar
    62   36   59 1
    63   37   38 ar
    64   37   60 1
    65   38   39 ar
    66   38   61 1
    67   39   62 1
    68   40   63 1
    69   40   64 1
@<TRIPOS>MOLECULE
ZINC12579510
   60    65     0     0     0
SMALL
USER_CHARGES
6-[(2-hydroxyphenyl)-trioxo-BLAHyl]hexanoic acid
@<TRIPOS>ATOM
      1 C1         -0.7411   -2.3497    2.8655 C.ar      1 <0>        -0.1222
      2 C2         -0.5861   -1.5085    3.9521 C.ar      1 <0>        -0.1024
      3 C3         -0.3570   -0.1606    3.7563 C.ar      1 <0>        -0.1394
      4 C4         -0.2828    0.3494    2.4680 C.ar      1 <0>         0.1113
      5 C5         -0.4391   -0.4964    1.3798 C.ar      1 <0>        -0.1056
      6 C6         -0.6733   -1.8431    1.5810 C.ar      1 <0>        -0.0929
      7 C7         -0.3596    0.0542   -0.0208 C.3       1 <0>         0.0722
      8 H1         -0.9422   -0.5725   -0.6961 H         1 <0>         0.1136
      9 C8         -0.8948    1.4633   -0.0450 C.2       1 <0>        -0.1967
     10 C9         -0.2273    2.6383   -0.0725 C.2       1 <0>         0.1196
     11 N1         -1.0069    3.7704   -0.1013 N.am      1 <0>        -0.6407
     12 H2         -0.5868    4.6443   -0.1305 H         1 <0>         0.4145
     13 C10        -2.3516    3.6736   -0.0898 C.2       1 <0>         0.5027
     14 O1         -3.1820    4.5652   -0.1068 O.2       1 <0>        -0.4532
     15 S1         -2.5992    1.9564   -0.0513 S.3       1 <0>         0.0065
     16 S2          1.5623    2.6930   -0.0679 S.3       1 <0>        -0.0306
     17 C11         1.9325    0.9927    0.4305 C.3       1 <0>        -0.0704
     18 H3          1.7157    0.8358    1.4871 H         1 <0>         0.1351
     19 C12         1.0558    0.0907   -0.4666 C.3       1 <0>        -0.0986
     20 H4          1.0291    0.6370   -1.4094 H         1 <0>         0.0856
     21 C13         1.8976   -1.1424   -0.7756 C.3       1 <0>        -0.0455
     22 H5          1.3738   -2.0954   -0.8504 H         1 <0>         0.1306
     23 C14         3.0803   -1.0412    0.2449 C.3       1 <0>        -0.1283
     24 C15         3.3483    0.5079    0.0549 C.3       1 <0>        -0.0605
     25 H6          4.1658    0.9457    0.6277 H         1 <0>         0.1254
     26 C16         3.5064    0.5643   -1.4920 C.3       1 <0>        -0.1267
     27 H7          3.2205    1.5269   -1.9161 H         1 <0>         0.1397
     28 C17         2.6742   -0.6269   -2.0532 C.3       1 <0>        -0.1296
     29 H8          2.0276   -0.3479   -2.8851 H         1 <0>         0.1394
     30 C18         3.7220   -1.6411   -2.4334 C.2       1 <0>         0.5357
     31 O2          3.5004   -2.7730   -2.8067 O.2       1 <0>        -0.4722
     32 N2          4.9362   -1.0948   -2.2935 N.am      1 <0>        -0.5763
     33 C19         4.9372    0.1724   -1.8093 C.2       1 <0>         0.5345
     34 O3          5.9086    0.8803   -1.6518 O.2       1 <0>        -0.4631
     35 C20         6.1696   -1.8052   -2.6405 C.3       1 <0>         0.0967
     36 C21         6.5201   -1.5332   -4.1047 C.3       1 <0>        -0.1327
     37 C22         7.8081   -2.2752   -4.4671 C.3       1 <0>        -0.1151
     38 C23         8.1586   -2.0032   -5.9314 C.3       1 <0>        -0.0973
     39 C24         9.4467   -2.7452   -6.2938 C.3       1 <0>        -0.1577
     40 C25         9.7919   -2.4773   -7.7360 C.2       1 <0>         0.4571
     41 O4          9.0807   -1.7659   -8.4054 O.co2     1 <0>        -0.6424
     42 O5         -0.0570    1.6752    2.2727 O.3       1 <0>        -0.4909
     43 H9         -0.9201   -3.4034    3.0207 H         1 <0>         0.1270
     44 H10        -0.6439   -1.9059    4.9547 H         1 <0>         0.1261
     45 H11        -0.2353    0.4959    4.6052 H         1 <0>         0.1279
     46 H12        -0.7991   -2.5014    0.7341 H         1 <0>         0.1301
     47 H13         3.9371   -1.6434   -0.0573 H         1 <0>         0.0801
     48 H14         2.7583   -1.2780    1.2590 H         1 <0>         0.0914
     49 H15         6.9814   -1.4571   -2.0018 H         1 <0>         0.0924
     50 H16         6.0257   -2.8757   -2.4941 H         1 <0>         0.0947
     51 H17         5.7083   -1.8814   -4.7434 H         1 <0>         0.0676
     52 H18         6.6640   -0.4627   -4.2511 H         1 <0>         0.0678
     53 H19         8.6199   -1.9271   -3.8285 H         1 <0>         0.0611
     54 H20         7.6642   -3.3457   -4.3208 H         1 <0>         0.0614
     55 H21         7.3468   -2.3514   -6.5700 H         1 <0>         0.0598
     56 H22         8.3025   -0.9327   -6.0778 H         1 <0>         0.0598
     57 H23        10.2585   -2.3971   -5.6551 H         1 <0>         0.0623
     58 H24         9.3028   -3.8157   -6.1474 H         1 <0>         0.0623
     59 H25        -0.8626    2.2009    2.1732 H         1 <0>         0.3782
     60 O6         10.8895   -3.0290   -8.2770 O.co2     1 <0>        -0.7790
@<TRIPOS>BOND
     1    1    6 ar
     2    1    2 ar
     3    1   43 1
     4    2    3 ar
     5    2   44 1
     6    3    4 ar
     7    3   45 1
     8    4    5 ar
     9    4   42 1
    10    5    6 ar
    11    5    7 1
    12    6   46 1
    13    7    8 1
    14    7   19 1
    15    7    9 1
    16    9   15 1
    17    9   10 2
    18   10   11 1
    19   10   16 1
    20   11   12 1
    21   11   13 am
    22   13   14 2
    23   13   15 1
    24   16   17 1
    25   17   18 1
    26   17   24 1
    27   17   19 1
    28   19   20 1
    29   19   21 1
    30   21   22 1
    31   21   28 1
    32   21   23 1
    33   23   24 1
    34   23   47 1
    35   23   48 1
    36   24   25 1
    37   24   26 1
    38   26   27 1
    39   26   33 1
    40   26   28 1
    41   28   29 1
    42   28   30 1
    43   30   31 2
    44   30   32 am
    45   32   33 am
    46   32   35 1
    47   33   34 2
    48   35   36 1
    49   35   49 1
    50   35   50 1
    51   36   37 1
    52   36   51 1
    53   36   52 1
    54   37   38 1
    55   37   53 1
    56   37   54 1
    57   38   39 1
    58   38   55 1
    59   38   56 1
    60   39   40 1
    61   39   57 1
    62   39   58 1
    63   40   41 2
    64   40   60 1
    65   42   59 1
@<TRIPOS>MOLECULE
ZINC30851832
   56    59     0     0     0
SMALL
USER_CHARGES
4-(benzenesulfonamido)-3-chloro-N-[2-(3-pyridylmethylcarbamoyl)phenyl]benzamide
@<TRIPOS>ATOM
      1 C1         -8.3906   13.3718    1.7247 C.ar      1 <0>        -0.0865
      2 C2         -9.7037   13.3596    2.1567 C.ar      1 <0>        -0.1481
      3 C3        -10.2940   12.1701    2.5406 C.ar      1 <0>        -0.0244
      4 C4         -9.5711   10.9928    2.4929 C.ar      1 <0>        -0.6570
      5 C5         -8.2563   11.0058    2.0663 C.ar      1 <0>        -0.0266
      6 C6         -7.6677   12.1945    1.6770 C.ar      1 <0>        -0.1470
      7 S1        -10.3234    9.4766    2.9826 S.o2      1 <0>         2.5982
      8 O1        -11.3863    9.8162    3.8625 O.2       1 <0>        -0.9889
      9 O2         -9.2684    8.6042    3.3635 O.2       1 <0>        -1.0325
     10 N1        -11.0192    8.8167    1.6325 N.2       1 <0>        -1.0406
     11 C7        -10.2341    8.5046    0.5273 C.ar      1 <0>         0.2875
     12 C8         -8.9357    8.0367    0.7076 C.ar      1 <0>        -0.2495
     13 C9         -8.1581    7.7220   -0.3834 C.ar      1 <0>        -0.0343
     14 C10        -8.6697    7.8823   -1.6747 C.ar      1 <0>        -0.2263
     15 C11        -9.9744    8.3520   -1.8533 C.ar      1 <0>        -0.0157
     16 C12       -10.7492    8.6607   -0.7575 C.ar      1 <0>        -0.0929
     17 Cl1       -12.3694    9.2440   -0.9774 Cl        1 <0>        -0.0778
     18 C13        -7.8369    7.5509   -2.8458 C.2       1 <0>         0.5760
     19 O3         -8.2848    7.6860   -3.9682 O.2       1 <0>        -0.5430
     20 N2         -6.5794    7.0981   -2.6720 N.am      1 <0>        -0.6802
     21 C14        -5.7569    6.8875   -3.7750 C.ar      1 <0>         0.2360
     22 C15        -5.8449    7.7230   -4.8809 C.ar      1 <0>        -0.1378
     23 C16        -5.0278    7.5129   -5.9730 C.ar      1 <0>        -0.0692
     24 C17        -4.1154    6.4699   -5.9760 C.ar      1 <0>        -0.1567
     25 C18        -4.0106    5.6338   -4.8858 C.ar      1 <0>        -0.0653
     26 C19        -4.8346    5.8305   -3.7751 C.ar      1 <0>        -0.1838
     27 C20        -4.7312    4.9359   -2.6068 C.2       1 <0>         0.5705
     28 O4         -5.3831    5.1648   -1.6062 O.2       1 <0>        -0.5386
     29 N3         -3.9143    3.8647   -2.6485 N.am      1 <0>        -0.7337
     30 C21        -3.8117    2.9762   -1.4882 C.3       1 <0>         0.1662
     31 C22        -2.8395    1.8651   -1.7907 C.ar      1 <0>        -0.1578
     32 C23        -3.2806    0.6841   -2.3682 C.ar      1 <0>        -0.0558
     33 C24        -2.3516   -0.3127   -2.6236 C.ar      1 <0>        -0.1740
     34 C25        -1.0241   -0.0932   -2.3073 C.ar      1 <0>         0.1038
     35 N4         -0.6395    1.0450   -1.7639 N.ar      1 <0>        -0.4858
     36 C26        -1.4963    2.0129   -1.5020 C.ar      1 <0>         0.1183
     37 H1         -7.9296   14.3011    1.4241 H         1 <0>         0.1197
     38 H2        -10.2684   14.2795    2.1940 H         1 <0>         0.1224
     39 H3        -11.3198   12.1606    2.8781 H         1 <0>         0.1332
     40 H4         -7.6902   10.0867    2.0331 H         1 <0>         0.1331
     41 H5         -6.6420   12.2039    1.3391 H         1 <0>         0.1221
     42 H6         -8.5394    7.9161    1.7050 H         1 <0>         0.1596
     43 H7         -7.1523    7.3548   -0.2423 H         1 <0>         0.1143
     44 H8        -10.3741    8.4724   -2.8493 H         1 <0>         0.1293
     45 H9         -6.2031    6.8950   -1.6585 H         1 <0>         0.4484
     46 H10        -6.5533    8.5382   -4.8861 H         1 <0>         0.1418
     47 H11        -5.0997    8.1655   -6.8305 H         1 <0>         0.1279
     48 H12        -3.4800    6.3144   -6.8354 H         1 <0>         0.1258
     49 H13        -3.2947    4.8252   -4.8914 H         1 <0>         0.1232
     50 H14        -3.3246    3.6576   -3.5537 H         1 <0>         0.4196
     51 H15        -3.4558    3.5483   -0.6187 H         1 <0>         0.0830
     52 H16        -4.8002    2.5480   -1.2657 H         1 <0>         0.0811
     53 H17        -4.3239    0.5423   -2.6089 H         1 <0>         0.1373
     54 H18        -2.6605   -1.2472   -3.0682 H         1 <0>         0.1373
     55 H19        -0.2934   -0.8629   -2.5073 H         1 <0>         0.1568
     56 H20        -1.1440    2.9314   -1.0563 H         1 <0>         0.1577
@<TRIPOS>BOND
     1    1    6 ar
     2    1    2 ar
     3    1   37 1
     4    2    3 ar
     5    2   38 1
     6    3    4 ar
     7    3   39 1
     8    4    5 ar
     9    4    7 1
    10    5    6 ar
    11    5   40 1
    12    6   41 1
    13    7    8 2
    14    7    9 2
    15    7   10 1
    16   10   11 1
    17   11   16 ar
    18   11   12 ar
    19   12   13 ar
    20   12   42 1
    21   13   14 ar
    22   13   43 1
    23   14   15 ar
    24   14   18 1
    25   15   16 ar
    26   15   44 1
    27   16   17 1
    28   18   19 2
    29   18   20 am
    30   20   21 1
    31   20   45 1
    32   21   26 ar
    33   21   22 ar
    34   22   23 ar
    35   22   46 1
    36   23   24 ar
    37   23   47 1
    38   24   25 ar
    39   24   48 1
    40   25   26 ar
    41   25   49 1
    42   26   27 1
    43   27   28 2
    44   27   29 am
    45   29   30 1
    46   29   50 1
    47   30   31 1
    48   30   51 1
    49   30   52 1
    50   31   36 ar
    51   31   32 ar
    52   32   33 ar
    53   32   53 1
    54   33   34 ar
    55   33   54 1
    56   34   35 ar
    57   34   55 1
    58   35   36 ar
    59   36   56 1
@<TRIPOS>MOLECULE
ZINC36050332
   65    69     0     0     0
SMALL
USER_CHARGES

@<TRIPOS>ATOM
      1 C1         -0.4649    1.6090    0.9319 C.3       1 <0>        -0.1512
      2 C2         -0.4959    0.0801    0.9794 C.3       1 <0>         0.0672
      3 O1         -1.8404   -0.3744    0.8129 O.3       1 <0>        -0.3531
      4 C3         -2.0310   -1.7099    0.7317 C.2       1 <0>         0.5390
      5 O2         -1.0915   -2.4702    0.8892 O.2       1 <0>        -0.5502
      6 C4         -3.3077   -2.2201    0.4667 C.2       1 <0>        -0.3897
      7 C5         -3.5448   -3.5812    0.4585 C.2       1 <0>         0.3022
      8 N1         -4.7564   -4.0491    0.2064 N.2       1 <0>        -0.5975
      9 C6         -5.8116   -3.3036   -0.0500 C.2       1 <0>         0.3240
     10 N2         -5.7891   -1.9375   -0.0889 N.pl3     1 <0>        -0.5103
     11 C7         -4.4742   -1.2993    0.1860 C.3       1 <0>         0.2615
     12 H1         -4.5920   -0.6362    1.0431 H         1 <0>         0.0734
     13 C8         -4.1179   -0.4492   -1.0062 C.ar      1 <0>        -0.0706
     14 C9         -3.7529    0.8724   -0.8285 C.ar      1 <0>        -0.0721
     15 C10        -3.4261    1.6521   -1.9219 C.ar      1 <0>        -0.1005
     16 C11        -3.4637    1.1102   -3.1934 C.ar      1 <0>        -0.1176
     17 C12        -3.8277   -0.2112   -3.3709 C.ar      1 <0>        -0.1231
     18 C13        -4.1505   -0.9923   -2.2767 C.ar      1 <0>        -0.0607
     19 C14        -4.5423   -2.4346   -2.4698 C.3       1 <0>        -0.1282
     20 C15        -3.0292    3.0929   -1.7283 C.3       1 <0>        -0.1065
     21 C16        -6.9801   -1.2987   -0.3714 C.2       1 <0>         0.2371
     22 C17        -8.0691   -2.0692   -0.5864 C.2       1 <0>        -0.3058
     23 S1         -7.4045   -3.7104   -0.3881 S.3       1 <0>         0.1417
     24 C18        -7.0606    0.1677   -0.4356 C.2       1 <0>        -0.4682
     25 C19        -8.2583    0.7717   -0.5561 C.2       1 <0>         0.5021
     26 O3         -9.3971    0.0419   -0.4699 O.3       1 <0>        -0.7038
     27 N3         -8.3263    2.1384   -0.7681 N.pl3     1 <0>        -0.7508
     28 C20        -9.6291    2.7954   -0.8991 C.3       1 <0>         0.1829
     29 C21        -9.4269    4.2721   -1.1218 C.ar      1 <0>        -0.0813
     30 C22        -9.3558    5.1295   -0.0396 C.ar      1 <0>        -0.0926
     31 C23        -9.1698    6.4847   -0.2387 C.ar      1 <0>        -0.1014
     32 C24        -9.0547    6.9872   -1.5247 C.ar      1 <0>         0.0267
     33 C25        -9.1264    6.1236   -2.6149 C.ar      1 <0>         0.0277
     34 C26        -9.3071    4.7657   -2.4075 C.ar      1 <0>        -0.0823
     35 O4         -8.9869    6.8537   -3.7597 O.3       1 <0>        -0.3095
     36 C27        -9.2383    8.2191   -3.3780 C.3       1 <0>         0.2134
     37 O5         -8.8702    8.2584   -1.9865 O.3       1 <0>        -0.3117
     38 C28        -2.4157   -4.5394    0.7381 C.3       1 <0>        -0.1180
     39 H2          0.5607    1.9558    1.0589 H         1 <0>         0.0706
     40 H3         -0.8474    1.9505   -0.0300 H         1 <0>         0.0656
     41 H4         -1.0858    2.0101    1.7329 H         1 <0>         0.0630
     42 H5          0.1250   -0.3210    0.1784 H         1 <0>         0.0578
     43 H6         -0.1134   -0.2614    1.9413 H         1 <0>         0.0577
     44 H7         -3.7235    1.2957    0.1647 H         1 <0>         0.1176
     45 H8         -3.2090    1.7197   -4.0478 H         1 <0>         0.1126
     46 H9         -3.8575   -0.6344   -4.3641 H         1 <0>         0.1130
     47 H10        -5.6218   -2.5030   -2.6045 H         1 <0>         0.0649
     48 H11        -4.0402   -2.8326   -3.3517 H         1 <0>         0.0565
     49 H12        -4.2482   -3.0115   -1.5930 H         1 <0>         0.0759
     50 H13        -1.9499    3.1570   -1.5897 H         1 <0>         0.0628
     51 H14        -3.3176    3.6704   -2.6067 H         1 <0>         0.0600
     52 H15        -3.5329    3.4935   -0.8487 H         1 <0>         0.0627
     53 H16        -9.0802   -1.7683   -0.8179 H         1 <0>         0.2308
     54 H17        -6.1593    0.7606   -0.3862 H         1 <0>         0.0923
     55 H18        -7.5113    2.6607   -0.8298 H         1 <0>         0.3866
     56 H19       -10.1667    2.3704   -1.7468 H         1 <0>         0.0629
     57 H20       -10.2071    2.6412    0.0120 H         1 <0>         0.0650
     58 H21        -9.4460    4.7396    0.9635 H         1 <0>         0.1403
     59 H22        -9.1147    7.1522    0.6085 H         1 <0>         0.1344
     60 H23        -9.3586    4.0930   -3.2509 H         1 <0>         0.1367
     61 H24        -8.6155    8.8999   -3.9583 H         1 <0>         0.1291
     62 H25       -10.2933    8.4634   -3.5022 H         1 <0>         0.0820
     63 H26        -2.3023   -4.6628    1.8151 H         1 <0>         0.0790
     64 H27        -2.6373   -5.5048    0.2831 H         1 <0>         0.0647
     65 H28        -1.4910   -4.1435    0.3183 H         1 <0>         0.1133
@<TRIPOS>BOND
     1    1    2 1
     2    1   39 1
     3    1   40 1
     4    1   41 1
     5    2    3 1
     6    2   42 1
     7    2   43 1
     8    3    4 1
     9    4    5 2
    10    4    6 1
    11    6   11 1
    12    6    7 2
    13    7    8 1
    14    7   38 1
    15    8    9 2
    16    9   23 1
    17    9   10 1
    18   10   11 1
    19   10   21 1
    20   11   12 1
    21   11   13 1
    22   13   18 ar
    23   13   14 ar
    24   14   15 ar
    25   14   44 1
    26   15   16 ar
    27   15   20 1
    28   16   17 ar
    29   16   45 1
    30   17   18 ar
    31   17   46 1
    32   18   19 1
    33   19   47 1
    34   19   48 1
    35   19   49 1
    36   20   50 1
    37   20   51 1
    38   20   52 1
    39   21   22 2
    40   21   24 1
    41   22   23 1
    42   22   53 1
    43   24   25 2
    44   24   54 1
    45   25   26 1
    46   25   27 1
    47   27   28 1
    48   27   55 1
    49   28   29 1
    50   28   56 1
    51   28   57 1
    52   29   34 ar
    53   29   30 ar
    54   30   31 ar
    55   30   58 1
    56   31   32 ar
    57   31   59 1
    58   32   37 1
    59   32   33 ar
    60   33   34 ar
    61   33   35 1
    62   34   60 1
    63   35   36 1
    64   36   37 1
    65   36   61 1
    66   36   62 1
    67   38   63 1
    68   38   64 1
    69   38   65 1
@<TRIPOS>MOLECULE
ZINC08738680
   39    42     0     0     0
SMALL
USER_CHARGES

@<TRIPOS>ATOM
      1 C1         -0.0661    1.4487    0.0547 C.3       1 <0>         0.0306
      2 O1         -0.0372    0.0204    0.0213 O.3       1 <0>        -0.3196
      3 C2         -1.2355   -0.6221    0.0449 C.ar      1 <0>         0.0631
      4 C3         -2.4165    0.1136    0.0935 C.ar      1 <0>        -0.1470
      5 C4         -3.6368   -0.5226    0.1178 C.ar      1 <0>        -0.1235
      6 C5         -3.6999   -1.9138    0.0939 C.ar      1 <0>         0.1438
      7 C6         -2.5092   -2.6580    0.0449 C.ar      1 <0>        -0.0895
      8 C7         -1.2773   -2.0018    0.0149 C.ar      1 <0>        -0.0590
      9 C8         -2.9010   -4.0742    0.0303 C.2       1 <0>         0.2180
     10 C9         -4.2935   -4.1003    0.0710 C.2       1 <0>        -0.1429
     11 N1         -4.7607   -2.7973    0.1089 N.pl3     1 <0>        -0.5733
     12 H1         -5.6961   -2.5427    0.1413 H         1 <0>         0.4143
     13 C10        -4.9422   -5.3541    0.0675 C.2       1 <0>         0.5602
     14 O2         -6.1595   -5.4259    0.1018 O.2       1 <0>        -0.5602
     15 N2         -4.1863   -6.4721    0.0248 N.am      1 <0>        -0.3723
     16 C11        -2.8285   -6.3842   -0.0134 C.2       1 <0>         0.6007
     17 O3         -2.0971   -7.5188   -0.0557 O.3       1 <0>        -0.6432
     18 N3         -2.2123   -5.2275   -0.0111 N.2       1 <0>        -0.5634
     19 N4         -4.8032   -7.7300    0.0202 N.pl3     1 <0>        -0.3859
     20 C12        -5.6451   -8.0606   -0.9706 C.2       1 <0>         0.3391
     21 C13        -6.3491   -9.2649   -0.9157 C.ar      1 <0>        -0.3397
     22 C14        -7.1376   -9.6912   -2.0085 C.ar      1 <0>         0.0500
     23 C15        -7.8161  -10.8680   -1.9354 C.ar      1 <0>        -0.1808
     24 C16        -7.7550  -11.6730   -0.8011 C.ar      1 <0>         0.0148
     25 C17        -7.0132  -11.3184    0.2862 C.ar      1 <0>        -0.2058
     26 C18        -6.2818  -10.1199    0.2766 C.ar      1 <0>         0.4159
     27 O4         -5.6070   -9.7921    1.2432 O.3       1 <0>        -0.5314
     28 Br1        -8.7244  -13.2963   -0.7677 Br        1 <0>        -0.0529
     29 Br2        -7.2497   -8.6278   -3.5682 Br        1 <0>        -0.0461
     30 H2          0.9535    1.8334    0.0310 H         1 <0>         0.0943
     31 H3         -0.6152    1.8213   -0.8100 H         1 <0>         0.0507
     32 H4         -0.5586    1.7809    0.9686 H         1 <0>         0.0507
     33 H5         -2.3747    1.1926    0.1126 H         1 <0>         0.1299
     34 H6         -4.5467    0.0579    0.1558 H         1 <0>         0.1254
     35 H7         -0.3606   -2.5712   -0.0276 H         1 <0>         0.1371
     36 H8         -4.6215   -8.3618    0.7334 H         1 <0>         0.4501
     37 H9         -5.7784   -7.3951   -1.8107 H         1 <0>         0.1676
     38 H10        -8.4159  -11.1847   -2.7759 H         1 <0>         0.1374
     39 H11        -6.9843  -11.9617    1.1533 H         1 <0>         0.1429
@<TRIPOS>BOND
     1    1    2 1
     2    1   30 1
     3    1   31 1
     4    1   32 1
     5    2    3 1
     6    3    8 ar
     7    3    4 ar
     8    4    5 ar
     9    4   33 1
    10    5    6 ar
    11    5   34 1
    12    6   11 1
    13    6    7 ar
    14    7    8 ar
    15    7    9 1
    16    8   35 1
    17    9   18 1
    18    9   10 2
    19   10   11 1
    20   10   13 1
    21   11   12 1
    22   13   14 2
    23   13   15 am
    24   15   16 1
    25   15   19 1
    26   16   17 1
    27   16   18 2
    28   19   20 2
    29   19   36 1
    30   20   21 1
    31   20   37 1
    32   21   26 ar
    33   21   22 ar
    34   22   23 ar
    35   22   29 1
    36   23   24 ar
    37   23   38 1
    38   24   25 ar
    39   24   28 1
    40   25   26 ar
    41   25   39 1
    42   26   27 1
@<TRIPOS>MOLECULE
ZINC06060168
   51    55     0     0     0
SMALL
USER_CHARGES

@<TRIPOS>ATOM
      1 C1          0.6937    0.1293   -2.8806 C.ar      1 <0>        -0.1115
      2 C2          1.8829    0.8546   -2.9077 C.ar      1 <0>        -0.1219
      3 C3          2.8643    0.6249   -1.9915 C.ar      1 <0>        -0.0871
      4 C4          2.6782   -0.3544   -1.0053 C.ar      1 <0>        -0.0296
      5 C5          1.4698   -1.0924   -0.9759 C.ar      1 <0>        -0.0516
      6 C6          0.4790   -0.8288   -1.9378 C.ar      1 <0>        -0.1133
      7 C7          1.2815   -2.0736    0.0125 C.ar      1 <0>        -0.1016
      8 C8          2.2564   -2.3099    0.9343 C.ar      1 <0>        -0.1154
      9 C9          3.4481   -1.5945    0.9201 C.ar      1 <0>        -0.1003
     10 C10         3.6756   -0.6201   -0.0366 C.ar      1 <0>        -0.0066
     11 C11         4.9479    0.1369   -0.0456 C.2       1 <0>         0.1063
     12 C12         6.1462   -0.5230    0.0374 C.2       1 <0>        -0.1966
     13 S1          7.2876    0.8523   -0.0170 S.3       1 <0>         0.0180
     14 C13         6.0665    2.1515   -0.1434 C.2       1 <0>         0.2019
     15 N1          4.9392    1.4562   -0.1394 N.2       1 <0>        -0.5002
     16 C14         6.2626    3.6113   -0.2339 C.2       1 <0>        -0.1225
     17 C15         7.5224    4.1313   -0.2275 C.2       1 <0>         0.2482
     18 N2          7.7040    5.4830   -0.3112 N.pl3     1 <0>        -0.6284
     19 C16         8.9954    6.0161   -0.3046 C.ar      1 <0>         0.1818
     20 C17        10.0963    5.1729   -0.2187 C.ar      1 <0>        -0.1855
     21 C18        11.3713    5.7033   -0.2124 C.ar      1 <0>         0.0166
     22 C19        11.5531    7.0719   -0.2911 C.ar      1 <0>        -0.6424
     23 C20        10.4595    7.9141   -0.3767 C.ar      1 <0>         0.0156
     24 C21         9.1818    7.3902   -0.3897 C.ar      1 <0>        -0.1741
     25 S2         13.1817    7.7443   -0.2816 S.o2      1 <0>         2.6352
     26 O1         13.0662    9.0817    0.1846 O.2       1 <0>        -1.0091
     27 O2         14.0136    6.7846    0.3557 O.2       1 <0>        -1.0085
     28 N3         13.6836    7.8340   -1.8571 N.2       1 <0>        -1.0313
     29 C22        14.9425    8.3309   -2.1562 C.2       1 <0>         0.4002
     30 N4         15.8674    8.7677   -1.3280 N.2       1 <0>        -0.6650
     31 C23        17.0280    9.2136   -1.7757 C.2       1 <0>         0.0994
     32 C24        17.2176    9.1992   -3.1169 C.2       1 <0>        -0.3440
     33 S3         15.6625    8.5153   -3.6662 S.3       1 <0>         0.0125
     34 C25         5.1293    4.4814   -0.3284 C.1       1 <0>         0.2681
     35 N5          4.2302    5.1718   -0.4033 N.1       1 <0>        -0.4177
     36 H1         -0.0708    0.3331   -3.6157 H         1 <0>         0.1222
     37 H2          2.0288    1.6094   -3.6662 H         1 <0>         0.1215
     38 H3          3.7815    1.1941   -2.0246 H         1 <0>         0.1311
     39 H4         -0.4477   -1.3832   -1.9284 H         1 <0>         0.1266
     40 H5          0.3628   -2.6406    0.0416 H         1 <0>         0.1273
     41 H6          2.1006   -3.0661    1.6895 H         1 <0>         0.1267
     42 H7          4.2045   -1.8014    1.6626 H         1 <0>         0.1267
     43 H8          6.3460   -1.5815    0.1150 H         1 <0>         0.2004
     44 H9          8.3772    3.4751   -0.1562 H         1 <0>         0.1783
     45 H10         6.9363    6.0724   -0.3752 H         1 <0>         0.4179
     46 H11         9.9550    4.1040   -0.1566 H         1 <0>         0.1350
     47 H12        12.2275    5.0484   -0.1457 H         1 <0>         0.1477
     48 H13        10.6050    8.9826   -0.4376 H         1 <0>         0.1468
     49 H14         8.3284    8.0482   -0.4611 H         1 <0>         0.1348
     50 H15        17.7914    9.5739   -1.1021 H         1 <0>         0.1461
     51 H16        18.0748    9.5119   -3.6946 H         1 <0>         0.1710
@<TRIPOS>BOND
     1    1    6 ar
     2    1    2 ar
     3    1   36 1
     4    2    3 ar
     5    2   37 1
     6    3    4 ar
     7    3   38 1
     8    4   10 ar
     9    4    5 ar
    10    5    6 ar
    11    5    7 ar
    12    6   39 1
    13    7    8 ar
    14    7   40 1
    15    8    9 ar
    16    8   41 1
    17    9   10 ar
    18    9   42 1
    19   10   11 1
    20   11   15 1
    21   11   12 2
    22   12   13 1
    23   12   43 1
    24   13   14 1
    25   14   15 2
    26   14   16 1
    27   16   17 2
    28   16   34 1
    29   17   18 1
    30   17   44 1
    31   18   19 1
    32   18   45 1
    33   19   24 ar
    34   19   20 ar
    35   20   21 ar
    36   20   46 1
    37   21   22 ar
    38   21   47 1
    39   22   23 ar
    40   22   25 1
    41   23   24 ar
    42   23   48 1
    43   24   49 1
    44   25   26 2
    45   25   27 2
    46   25   28 1
    47   28   29 1
    48   29   33 1
    49   29   30 2
    50   30   31 1
    51   31   32 2
    52   31   50 1
    53   32   33 1
    54   32   51 1
    55   34   35 3
@<TRIPOS>MOLECULE
ZINC08454422
   61    63     0     0     0
SMALL
USER_CHARGES
6-[[3-cyano-5-methyl-4-(4-sec-butylphenyl)-2-thienyl]carbamoyl]-3,4-dimethyl-cyclohex-3-ene-1-carboxylic acid
@<TRIPOS>ATOM
      1 C1         -8.2726   -9.2888   -7.4585 C.3       1 <0>        -0.1544
      2 C2         -7.4564   -8.0501   -7.0840 C.3       1 <0>        -0.1149
      3 C3         -7.7399   -7.6733   -5.6285 C.3       1 <0>        -0.0524
      4 H1         -7.5455   -8.5324   -4.9863 H         1 <0>         0.0761
      5 C4         -9.2038   -7.2515   -5.4868 C.3       1 <0>        -0.1456
      6 C5         -6.8461   -6.5300   -5.2223 C.ar      1 <0>        -0.0775
      7 C6         -5.9590   -6.6883   -4.1726 C.ar      1 <0>        -0.1149
      8 C7         -5.1378   -5.6451   -3.7965 C.ar      1 <0>        -0.0966
      9 C8         -5.2033   -4.4298   -4.4766 C.ar      1 <0>        -0.0291
     10 C9         -6.1031   -4.2745   -5.5302 C.ar      1 <0>        -0.0989
     11 C10        -6.9156   -5.3265   -5.9008 C.ar      1 <0>        -0.1156
     12 C11        -4.3242   -3.3052   -4.0770 C.2       1 <0>        -0.0302
     13 C12        -3.3675   -2.8328   -4.9169 C.2       1 <0>        -0.1957
     14 S1         -2.6142   -1.5181   -3.9789 S.3       1 <0>         0.1926
     15 C13        -3.5919   -1.6306   -2.4925 C.2       1 <0>         0.1589
     16 C14        -4.4557   -2.6810   -2.7766 C.2       1 <0>        -0.1428
     17 C15        -5.4336   -3.1237   -1.8288 C.1       1 <0>         0.2760
     18 N1         -6.2094   -3.4749   -1.0769 N.1       1 <0>        -0.4283
     19 N2         -3.5074   -0.8647   -1.3383 N.am      1 <0>        -0.5971
     20 C16        -2.5895    0.1179   -1.2474 C.2       1 <0>         0.5342
     21 O1         -1.8374    0.3329   -2.1743 O.2       1 <0>        -0.4972
     22 C17        -2.4977    0.9496    0.0060 C.3       1 <0>        -0.0834
     23 H2         -3.4394    0.8944    0.5521 H         1 <0>         0.0957
     24 C18        -2.1963    2.4039   -0.3626 C.3       1 <0>        -0.0581
     25 C19        -0.7919    2.5263   -0.8770 C.2       1 <0>        -0.1373
     26 C20         0.1267    1.6321   -0.6977 C.2       1 <0>        -0.1001
     27 C21        -0.0872    0.3434    0.0409 C.3       1 <0>        -0.0602
     28 C22        -1.3579    0.4268    0.8894 C.3       1 <0>        -0.1178
     29 H3         -1.2000    1.1084    1.7252 H         1 <0>         0.0882
     30 C23        -1.7090   -0.9424    1.4117 C.2       1 <0>         0.4665
     31 O2         -2.7624   -1.4520    1.1107 O.co2     1 <0>        -0.6409
     32 C24         1.4962    1.9022   -1.2656 C.3       1 <0>        -0.1141
     33 C25        -0.4284    3.7674   -1.6508 C.3       1 <0>        -0.1111
     34 C26        -3.0257   -3.3056   -6.3064 C.3       1 <0>        -0.0583
     35 H4         -8.0706   -9.5573   -8.4954 H         1 <0>         0.0529
     36 H5         -7.9942  -10.1178   -6.8077 H         1 <0>         0.0533
     37 H6         -9.3345   -9.0740   -7.3390 H         1 <0>         0.0563
     38 H7         -7.7347   -7.2212   -7.7348 H         1 <0>         0.0633
     39 H8         -6.3944   -8.2650   -7.2034 H         1 <0>         0.0631
     40 H9         -9.4058   -6.9831   -4.4498 H         1 <0>         0.0555
     41 H10        -9.3982   -6.3925   -6.1290 H         1 <0>         0.0562
     42 H11        -9.8503   -8.0784   -5.7806 H         1 <0>         0.0587
     43 H12        -5.9094   -7.6301   -3.6463 H         1 <0>         0.1203
     44 H13        -4.4454   -5.7699   -2.9771 H         1 <0>         0.1217
     45 H14        -6.1611   -3.3340   -6.0580 H         1 <0>         0.1232
     46 H15        -7.6098   -5.2088   -6.7197 H         1 <0>         0.1203
     47 H16        -4.1089   -1.0367   -0.5971 H         1 <0>         0.4338
     48 H17        -2.8933    2.7332   -1.1333 H         1 <0>         0.0684
     49 H18        -2.3114    3.0319    0.5208 H         1 <0>         0.0790
     50 H19         0.7681    0.1521    0.6889 H         1 <0>         0.0758
     51 H20        -0.1843   -0.4720   -0.6759 H         1 <0>         0.0685
     52 H21         1.9292    2.7721   -0.7718 H         1 <0>         0.0589
     53 H22         2.1355    1.0350   -1.1004 H         1 <0>         0.0554
     54 H23         1.4145    2.0948   -2.3353 H         1 <0>         0.0632
     55 H24         0.0253    4.4952   -0.9781 H         1 <0>         0.0568
     56 H25         0.2796    3.5100   -2.4386 H         1 <0>         0.0625
     57 H26        -1.3273    4.1946   -2.0954 H         1 <0>         0.0522
     58 H27        -2.2042   -2.7080   -6.7017 H         1 <0>         0.0703
     59 H28        -2.7283   -4.3536   -6.2707 H         1 <0>         0.0756
     60 H29        -3.8973   -3.1970   -6.9518 H         1 <0>         0.0752
     61 O3         -0.8492   -1.5983    2.2069 O.co2     1 <0>        -0.7558
@<TRIPOS>BOND
     1    1    2 1
     2    1   35 1
     3    1   36 1
     4    1   37 1
     5    2    3 1
     6    2   38 1
     7    2   39 1
     8    3    4 1
     9    3    5 1
    10    3    6 1
    11    5   40 1
    12    5   41 1
    13    5   42 1
    14    6   11 ar
    15    6    7 ar
    16    7    8 ar
    17    7   43 1
    18    8    9 ar
    19    8   44 1
    20    9   10 ar
    21    9   12 1
    22   10   11 ar
    23   10   45 1
    24   11   46 1
    25   12   16 1
    26   12   13 2
    27   13   14 1
    28   13   34 1
    29   14   15 1
    30   15   16 2
    31   15   19 1
    32   16   17 1
    33   17   18 3
    34   19   20 am
    35   19   47 1
    36   20   21 2
    37   20   22 1
    38   22   23 1
    39   22   28 1
    40   22   24 1
    41   24   25 1
    42   24   48 1
    43   24   49 1
    44   25   26 2
    45   25   33 1
    46   26   27 1
    47   26   32 1
    48   27   28 1
    49   27   50 1
    50   27   51 1
    51   28   29 1
    52   28   30 1
    53   30   31 2
    54   30   61 1
    55   32   52 1
    56   32   53 1
    57   32   54 1
    58   33   55 1
    59   33   56 1
    60   33   57 1
    61   34   58 1
    62   34   59 1
    63   34   60 1
@<TRIPOS>MOLECULE
ZINC16268646
   43    45     0     0     0
SMALL
USER_CHARGES
2-[3-[(E)-[(4-iodophenyl)hydrazono]methyl]-2,5-dimethyl-pyrrol-1-yl]benzoic acid
@<TRIPOS>ATOM
      1 C1         -0.2131    4.3143    2.5547 C.3       1 <0>        -0.0807
      2 C2         -0.6546    4.5700    1.1367 C.2       1 <0>         0.0552
      3 C3         -1.7785    5.2129    0.7708 C.2       1 <0>        -0.1758
      4 C4         -1.7992    5.2210   -0.6951 C.2       1 <0>        -0.1668
      5 C5         -0.6657    4.5771   -1.0983 C.2       1 <0>         0.1288
      6 N1          0.0225    4.1894    0.0126 N.pl3     1 <0>        -0.3726
      7 C6          1.2363    3.5005    0.0033 C.ar      1 <0>         0.1265
      8 C7          2.4350    4.1997    0.0010 C.ar      1 <0>        -0.1220
      9 C8          3.6346    3.5165   -0.0141 C.ar      1 <0>        -0.1191
     10 C9          3.6525    2.1311   -0.0213 C.ar      1 <0>        -0.1249
     11 C10         2.4721    1.4200   -0.0139 C.ar      1 <0>        -0.0751
     12 C11         1.2504    2.0978    0.0014 C.ar      1 <0>        -0.0978
     13 C12        -0.0162    1.3433    0.0094 C.2       1 <0>         0.4808
     14 O1         -1.0766    1.9365    0.0177 O.co2     1 <0>        -0.5994
     15 C13        -0.2467    4.3364   -2.5257 C.3       1 <0>        -0.0881
     16 C14        -2.8381    5.8087   -1.5616 C.2       1 <0>         0.1778
     17 N2         -2.7217    5.7399   -2.8526 N.2       1 <0>        -0.2792
     18 N3         -3.7085    6.2981   -3.6756 N.pl3     1 <0>        -0.5876
     19 C15        -3.5834    6.2243   -5.0631 C.ar      1 <0>         0.2531
     20 C16        -2.4775    5.6022   -5.6307 C.ar      1 <0>        -0.1617
     21 C17        -2.3597    5.5259   -7.0043 C.ar      1 <0>        -0.0444
     22 C18        -3.3352    6.0777   -7.8156 C.ar      1 <0>        -0.1539
     23 C19        -4.4345    6.7026   -7.2540 C.ar      1 <0>        -0.0413
     24 C20        -4.5615    6.7775   -5.8812 C.ar      1 <0>        -0.1938
     25 I1         -3.1477    5.9661   -9.8992 I         1 <0>        -0.0634
     26 H1          0.4008    5.1463    2.8997 H         1 <0>         0.0631
     27 H2         -1.0891    4.2186    3.1963 H         1 <0>         0.0760
     28 H3          0.3683    3.3931    2.5938 H         1 <0>         0.0619
     29 H4         -2.5230    5.6362    1.4288 H         1 <0>         0.1368
     30 H5          2.4295    5.2797    0.0062 H         1 <0>         0.1225
     31 H6          4.5648    4.0653   -0.0200 H         1 <0>         0.1235
     32 H7          4.5962    1.6059   -0.0332 H         1 <0>         0.1231
     33 H8          2.4914    0.3402   -0.0203 H         1 <0>         0.1378
     34 H9         -0.6525    3.3844   -2.8679 H         1 <0>         0.0746
     35 H10        -0.6260    5.1406   -3.1562 H         1 <0>         0.0928
     36 H11         0.8413    4.3102   -2.5855 H         1 <0>         0.0543
     37 H12        -3.6957    6.2961   -1.1219 H         1 <0>         0.1089
     38 H13        -4.4788    6.7359   -3.2807 H         1 <0>         0.3827
     39 H14        -1.7134    5.1752   -4.9980 H         1 <0>         0.1418
     40 H15        -1.5031    5.0385   -7.4459 H         1 <0>         0.1271
     41 H16        -5.1943    7.1319   -7.8903 H         1 <0>         0.1260
     42 H17        -5.4201    7.2652   -5.4435 H         1 <0>         0.1263
     43 O2          0.0021   -0.0041    0.0020 O.co2     1 <0>        -0.7537
@<TRIPOS>BOND
     1    1    2 1
     2    1   26 1
     3    1   27 1
     4    1   28 1
     5    2    6 1
     6    2    3 2
     7    3    4 1
     8    3   29 1
     9    4    5 2
    10    4   16 1
    11    5    6 1
    12    5   15 1
    13    6    7 1
    14    7   12 ar
    15    7    8 ar
    16    8    9 ar
    17    8   30 1
    18    9   10 ar
    19    9   31 1
    20   10   11 ar
    21   10   32 1
    22   11   12 ar
    23   11   33 1
    24   12   13 1
    25   13   14 2
    26   13   43 1
    27   15   34 1
    28   15   35 1
    29   15   36 1
    30   16   17 2
    31   16   37 1
    32   17   18 1
    33   18   19 1
    34   18   38 1
    35   19   24 ar
    36   19   20 ar
    37   20   21 ar
    38   20   39 1
    39   21   22 ar
    40   21   40 1
    41   22   23 ar
    42   22   25 1
    43   23   24 ar
    44   23   41 1
    45   24   42 1
@<TRIPOS>MOLECULE
ZINC01414686
   59    63     0     0     0
SMALL
USER_CHARGES
(4Z,5R)-4-[hydroxy(p-tolyl)methylene]-1-[2-(1H-indol-3-yl)ethyl]-5-(p-tolyl)pyrrolidine-2,3-dione
@<TRIPOS>ATOM
      1 C1          2.8306    5.0821   -5.4373 C.3       1 <0>        -0.1105
      2 C2          2.2665    4.6253   -4.1166 C.ar      1 <0>        -0.0957
      3 C3          2.8824    4.9968   -2.9363 C.ar      1 <0>        -0.1201
      4 C4          2.3649    4.5779   -1.7249 C.ar      1 <0>        -0.1025
      5 C5          1.2309    3.7881   -1.6938 C.ar      1 <0>        -0.0727
      6 C6          0.6176    3.4126   -2.8744 C.ar      1 <0>        -0.0860
      7 C7          1.1326    3.8352   -4.0856 C.ar      1 <0>        -0.1256
      8 C8          0.6667    3.3313   -0.3732 C.3       1 <0>         0.2555
      9 H1          1.1701    3.8862    0.4322 H         1 <0>         0.0668
     10 C9          0.8405    1.8375   -0.2251 C.2       1 <0>        -0.4975
     11 C10         2.0298    1.1386   -0.2135 C.2       1 <0>         0.3831
     12 C11         3.3116    1.8655   -0.2119 C.ar      1 <0>        -0.0676
     13 C12         4.3233    1.5081   -1.1088 C.ar      1 <0>        -0.0815
     14 C13         5.5180    2.1965   -1.1048 C.ar      1 <0>        -0.1249
     15 C14         5.7216    3.2313   -0.2083 C.ar      1 <0>        -0.0938
     16 C15         4.7270    3.5874    0.6861 C.ar      1 <0>        -0.1283
     17 C16         3.5248    2.9124    0.6905 C.ar      1 <0>        -0.0959
     18 C17         7.0326    3.9743   -0.2063 C.3       1 <0>        -0.1109
     19 O1          2.0194   -0.2113   -0.2035 O.2       1 <0>        -0.6144
     20 C18        -0.4530    1.3043   -0.1017 C.2       1 <0>         0.3738
     21 O2         -0.7300    0.1273    0.0407 O.3       1 <0>        -0.4801
     22 C19        -1.4263    2.4278   -0.1752 C.2       1 <0>         0.4759
     23 O3         -2.6325    2.3090   -0.1061 O.2       1 <0>        -0.5347
     24 N1         -0.7748    3.5931   -0.3258 N.am      1 <0>        -0.5988
     25 C20        -1.4038    4.9118   -0.4326 C.3       1 <0>         0.1405
     26 C21        -1.6974    5.2194   -1.9023 C.3       1 <0>        -0.0705
     27 C22        -2.3446    6.5759   -2.0121 C.2       1 <0>        -0.1636
     28 C23        -3.6615    6.8305   -2.0647 C.2       1 <0>         0.0500
     29 N2         -3.8726    8.1789   -2.1619 N.pl3     1 <0>        -0.6041
     30 H2         -4.8984    8.5725   -2.2161 H         1 <0>         0.4396
     31 C24        -2.6659    8.8418   -2.1745 C.ar      1 <0>         0.1087
     32 C25        -1.6559    7.8673   -2.0753 C.ar      1 <0>        -0.1025
     33 C26        -0.3142    8.2528   -2.0703 C.ar      1 <0>        -0.0514
     34 C27         0.0113    9.5776   -2.1513 C.ar      1 <0>        -0.1461
     35 C28        -0.9814   10.5432   -2.2434 C.ar      1 <0>        -0.0942
     36 C29        -2.3118   10.1844   -2.2554 C.ar      1 <0>        -0.1283
     37 H3          3.7259    5.6962   -5.2608 H         1 <0>         0.0597
     38 H4          2.0763    5.6785   -5.9716 H         1 <0>         0.0627
     39 H5          3.1012    4.2050   -6.0435 H         1 <0>         0.0635
     40 H6          3.7683    5.6143   -2.9605 H         1 <0>         0.1122
     41 H7          2.8465    4.8679   -0.8026 H         1 <0>         0.1179
     42 H8         -0.2659    2.7919   -2.8503 H         1 <0>         0.1126
     43 H9          0.6511    3.5452   -5.0078 H         1 <0>         0.1123
     44 H10         4.1676    0.6980   -1.8059 H         1 <0>         0.1196
     45 H11         6.2986    1.9246   -1.7998 H         1 <0>         0.1144
     46 H12         4.8933    4.3959    1.3826 H         1 <0>         0.1162
     47 H13         2.7496    3.1916    1.3887 H         1 <0>         0.1229
     48 H14         7.0101    4.7556    0.5677 H         1 <0>         0.0606
     49 H15         7.1927    4.4380   -1.1909 H         1 <0>         0.0640
     50 H16         7.8519    3.2716    0.0057 H         1 <0>         0.0634
     51 H17        -0.7246    5.6760   -0.0267 H         1 <0>         0.0749
     52 H18        -2.3442    4.9168    0.1381 H         1 <0>         0.0765
     53 H19        -0.7570    5.2145   -2.4729 H         1 <0>         0.0853
     54 H20        -2.3766    4.4552   -2.3082 H         1 <0>         0.0706
     55 H21        -4.3181    6.0770   -2.0308 H         1 <0>         0.1578
     56 H22         0.4046    7.5607   -2.0038 H         1 <0>         0.1120
     57 H23         0.9737    9.8491   -2.1434 H         1 <0>         0.1104
     58 H24        -0.7342   11.5104   -2.3016 H         1 <0>         0.1115
     59 H25        -3.0216   10.8857   -2.3217 H         1 <0>         0.1072
@<TRIPOS>BOND
     1    1    2 1
     2    1   37 1
     3    1   38 1
     4    1   39 1
     5    2    7 ar
     6    2    3 ar
     7    3    4 ar
     8    3   40 1
     9    4    5 ar
    10    4   41 1
    11    5    6 ar
    12    5    8 1
    13    6    7 ar
    14    6   42 1
    15    7   43 1
    16    8   10 1
    17    8   24 1
    18    8    9 1
    19   10   20 2
    20   10   11 1
    21   11   19 2
    22   11   12 1
    23   12   17 ar
    24   12   13 ar
    25   13   14 ar
    26   13   44 1
    27   14   15 ar
    28   14   45 1
    29   15   16 ar
    30   15   18 1
    31   16   17 ar
    32   16   46 1
    33   17   47 1
    34   18   48 1
    35   18   49 1
    36   18   50 1
    37   20   22 1
    38   20   21 1
    39   22   24 am
    40   22   23 2
    41   24   25 1
    42   25   26 1
    43   25   51 1
    44   25   52 1
    45   26   27 1
    46   26   53 1
    47   26   54 1
    48   27   32 1
    49   27   28 2
    50   28   29 1
    51   28   55 1
    52   29   30 1
    53   29   31 1
    54   31   36 ar
    55   31   32 ar
    56   32   33 ar
    57   33   34 ar
    58   33   56 1
    59   34   35 ar
    60   34   57 1
    61   35   36 ar
    62   35   58 1
    63   36   59 1
@<TRIPOS>MOLECULE
ZINC39887353
   53    56     0     0     0
SMALL
USER_CHARGES

@<TRIPOS>ATOM
      1 C1          1.7935   -2.0349    2.4371 C.3       1 <0>        -0.1528
      2 C2          0.9079   -1.7838    1.2150 C.3       1 <0>        -0.1258
      3 C3          1.6240   -2.2773   -0.0439 C.3       1 <0>        -0.1134
      4 C4          0.7384   -2.0262   -1.2660 C.3       1 <0>        -0.0780
      5 C5          1.4438   -2.5122   -2.5058 C.ar      1 <0>        -0.0865
      6 C6          2.2703   -1.6557   -3.2099 C.ar      1 <0>        -0.1092
      7 C7          2.9185   -2.0981   -4.3463 C.ar      1 <0>        -0.1040
      8 C8          2.7396   -3.4048   -4.7818 C.ar      1 <0>         0.1702
      9 C9          1.9088   -4.2625   -4.0724 C.ar      1 <0>        -0.1006
     10 C10         1.2676   -3.8153   -2.9338 C.ar      1 <0>        -0.1071
     11 N1          3.3941   -3.8557   -5.9323 N.pl3     1 <0>        -0.5708
     12 C11         4.8543   -3.9918   -5.9554 C.3       1 <0>         0.4669
     13 H1          5.2392   -3.9412   -4.9368 H         1 <0>         0.1253
     14 N2          5.2219   -5.2775   -6.5514 N.am      1 <0>        -0.7341
     15 C12         4.4431   -5.8445   -7.4942 C.2       1 <0>         0.6000
     16 O1          4.7775   -6.8931   -8.0153 O.2       1 <0>        -0.5589
     17 C13         3.1921   -5.1923   -7.8882 C.2       1 <0>        -0.3212
     18 C14         2.6808   -4.1843   -7.0583 C.2       1 <0>         0.4470
     19 S1          1.1727   -3.3632   -7.4535 S.3       1 <0>        -0.7713
     20 C15         2.5082   -5.5772   -9.0860 C.1       1 <0>         0.3371
     21 N3          1.9656   -5.8826  -10.0361 N.1       1 <0>        -0.4946
     22 C16         5.4490   -2.8737   -6.7721 C.2       1 <0>        -0.0285
     23 C17         6.5891   -2.9434   -7.4868 C.2       1 <0>        -0.1830
     24 C18         6.7744   -1.6843   -8.0921 C.2       1 <0>        -0.1825
     25 C19         5.7262   -0.9077   -7.7094 C.2       1 <0>         0.0228
     26 O2          4.9276   -1.6441   -6.9132 O.3       1 <0>        -0.1429
     27 C20         5.4997    0.4987   -8.1030 C.ar      1 <0>         0.0064
     28 C21         6.4047    1.1449   -8.9471 C.ar      1 <0>        -0.0972
     29 C22         6.1880    2.4577   -9.3110 C.ar      1 <0>        -0.1043
     30 C23         5.0767    3.1349   -8.8413 C.ar      1 <0>        -0.1103
     31 C24         4.1751    2.5007   -8.0035 C.ar      1 <0>        -0.0294
     32 C25         4.3771    1.1846   -7.6371 C.ar      1 <0>        -0.0896
     33 Cl1         2.7840    3.3590   -7.4189 Cl        1 <0>        -0.0653
     34 H2          1.9934   -3.1026    2.5277 H         1 <0>         0.0532
     35 H3          2.7347   -1.4976    2.3203 H         1 <0>         0.0530
     36 H4          1.2833   -1.6834    3.3339 H         1 <0>         0.0511
     37 H5         -0.0333   -2.3211    1.3317 H         1 <0>         0.0606
     38 H6          0.7079   -0.7162    1.1243 H         1 <0>         0.0605
     39 H7          2.5652   -1.7400   -0.1606 H         1 <0>         0.0627
     40 H8          1.8240   -3.3449    0.0468 H         1 <0>         0.0629
     41 H9         -0.2028   -2.5635   -1.1492 H         1 <0>         0.0697
     42 H10         0.5385   -0.9585   -1.3566 H         1 <0>         0.0696
     43 H11         2.4087   -0.6397   -2.8709 H         1 <0>         0.1197
     44 H12         3.5636   -1.4286   -4.8959 H         1 <0>         0.1235
     45 H13         1.7672   -5.2790   -4.4086 H         1 <0>         0.1211
     46 H14         0.6247   -4.4829   -2.3794 H         1 <0>         0.1204
     47 H15         6.0335   -5.7253   -6.2655 H         1 <0>         0.4067
     48 H16         7.2383   -3.8016   -7.5781 H         1 <0>         0.1521
     49 H17         7.5912   -1.3927   -8.7356 H         1 <0>         0.1509
     50 H18         7.2731    0.6181   -9.3142 H         1 <0>         0.1344
     51 H19         6.8877    2.9582   -9.9640 H         1 <0>         0.1372
     52 H20         4.9120    4.1627   -9.1290 H         1 <0>         0.1346
     53 H21         3.6709    0.6890   -6.9875 H         1 <0>         0.1418
@<TRIPOS>BOND
     1    1    2 1
     2    1   34 1
     3    1   35 1
     4    1   36 1
     5    2    3 1
     6    2   37 1
     7    2   38 1
     8    3    4 1
     9    3   39 1
    10    3   40 1
    11    4    5 1
    12    4   41 1
    13    4   42 1
    14    5   10 ar
    15    5    6 ar
    16    6    7 ar
    17    6   43 1
    18    7    8 ar
    19    7   44 1
    20    8    9 ar
    21    8   11 1
    22    9   10 ar
    23    9   45 1
    24   10   46 1
    25   11   18 1
    26   11   12 1
    27   12   13 1
    28   12   14 1
    29   12   22 1
    30   14   15 am
    31   14   47 1
    32   15   16 2
    33   15   17 1
    34   17   18 2
    35   17   20 1
    36   18   19 1
    37   20   21 3
    38   22   26 1
    39   22   23 2
    40   23   24 1
    41   23   48 1
    42   24   25 2
    43   24   49 1
    44   25   26 1
    45   25   27 1
    46   27   32 ar
    47   27   28 ar
    48   28   29 ar
    49   28   50 1
    50   29   30 ar
    51   29   51 1
    52   30   31 ar
    53   30   52 1
    54   31   32 ar
    55   31   33 1
    56   32   53 1
@<TRIPOS>MOLECULE
ZINC44322761
   52    55     0     0     0
SMALL
USER_CHARGES

@<TRIPOS>ATOM
      1 C1         -0.3750    0.2106    0.0856 C.ar      1 <0>        -0.1168
      2 C2          0.7340    1.0315    0.1860 C.ar      1 <0>        -0.1159
      3 C3          2.0056    0.4889    0.1343 C.ar      1 <0>        -0.0942
      4 C4          2.1699   -0.8718   -0.0169 C.ar      1 <0>        -0.0854
      5 C5          1.0602   -1.7061   -0.1183 C.ar      1 <0>        -0.0449
      6 C6         -0.2200   -1.1515   -0.0658 C.ar      1 <0>        -0.0990
      7 C7          1.5111   -3.1114   -0.2730 C.ar      1 <0>        -0.0644
      8 C8          0.7895   -4.2986   -0.4113 C.ar      1 <0>        -0.0988
      9 C9          1.4564   -5.4988   -0.5415 C.ar      1 <0>        -0.1198
     10 C10         2.8394   -5.5321   -0.5355 C.ar      1 <0>        -0.1098
     11 C11         3.5609   -4.3595   -0.3988 C.ar      1 <0>        -0.0820
     12 C12         2.9024   -3.1551   -0.2681 C.ar      1 <0>        -0.0799
     13 C13         3.4010   -1.7400   -0.1057 C.3       1 <0>        -0.0072
     14 C14         4.2441   -1.3363   -1.3170 C.3       1 <0>         0.1078
     15 O1          5.4605   -2.0862   -1.3220 O.3       1 <0>        -0.3679
     16 C15         6.3208   -1.8487   -2.3300 C.2       1 <0>         0.6521
     17 O2          6.0464   -1.0270   -3.1821 O.2       1 <0>        -0.5730
     18 N1          7.4865   -2.5222   -2.3939 N.am      1 <0>        -0.6741
     19 C16         8.4227   -2.2637   -3.4907 C.3       1 <0>         0.0909
     20 H1          8.3606   -1.2151   -3.7819 H         1 <0>         0.0940
     21 C17         9.8469   -2.5819   -3.0313 C.3       1 <0>        -0.0965
     22 C18        10.2550   -1.6126   -1.9519 C.ar      1 <0>         0.0092
     23 C19         9.3603   -0.6567   -1.5073 C.ar      1 <0>        -0.1303
     24 C20         9.7332    0.2329   -0.5173 C.ar      1 <0>        -0.0548
     25 C21        11.0012    0.1682    0.0290 C.ar      1 <0>        -0.1678
     26 C22        11.8977   -0.7884   -0.4154 C.ar      1 <0>         0.1477
     27 C23        11.5210   -1.6832   -1.4029 C.ar      1 <0>        -0.2278
     28 C24        12.4938   -2.7291   -1.8834 C.3       1 <0>         0.5123
     29 F1         13.1182   -2.2829   -3.0531 F         1 <0>        -0.1719
     30 F2         13.4593   -2.9563   -0.8968 F         1 <0>        -0.1749
     31 F3         11.8068   -3.9191   -2.1464 F         1 <0>        -0.1670
     32 F4         13.1375   -0.8523    0.1176 F         1 <0>        -0.1258
     33 C25         8.0687   -3.1340   -4.6690 C.2       1 <0>         0.4910
     34 O3          7.1221   -3.8992   -4.5990 O.co2     1 <0>        -0.6769
     35 O4          8.7288   -3.0728   -5.6922 O.co2     1 <0>        -0.6896
     36 H2         -1.3660    0.6375    0.1305 H         1 <0>         0.1256
     37 H3          0.6069    2.0974    0.3044 H         1 <0>         0.1273
     38 H4          2.8701    1.1316    0.2122 H         1 <0>         0.1266
     39 H5         -1.0885   -1.7887   -0.1441 H         1 <0>         0.1227
     40 H6         -0.2903   -4.2772   -0.4161 H         1 <0>         0.1202
     41 H7          0.8968   -6.4164   -0.6481 H         1 <0>         0.1249
     42 H8          3.3566   -6.4747   -0.6374 H         1 <0>         0.1284
     43 H9          4.6405   -4.3876   -0.3944 H         1 <0>         0.1322
     44 H10         3.9892   -1.6519    0.8078 H         1 <0>         0.1123
     45 H11         3.6874   -1.5407   -2.2315 H         1 <0>         0.0714
     46 H12         4.4735   -0.2722   -1.2615 H         1 <0>         0.0718
     47 H13         7.7056   -3.1781   -1.7137 H         1 <0>         0.3990
     48 H14         9.8837   -3.5985   -2.6396 H         1 <0>         0.1039
     49 H15        10.5297   -2.4932   -3.8763 H         1 <0>         0.1131
     50 H16         8.3696   -0.6050   -1.9340 H         1 <0>         0.1485
     51 H17         9.0336    0.9792   -0.1708 H         1 <0>         0.1399
     52 H18        11.2925    0.8639    0.8020 H         1 <0>         0.1435
@<TRIPOS>BOND
     1    1    6 ar
     2    1    2 ar
     3    1   36 1
     4    2    3 ar
     5    2   37 1
     6    3    4 ar
     7    3   38 1
     8    4   13 1
     9    4    5 ar
    10    5    6 ar
    11    5    7 1
    12    6   39 1
    13    7   12 ar
    14    7    8 ar
    15    8    9 ar
    16    8   40 1
    17    9   10 ar
    18    9   41 1
    19   10   11 ar
    20   10   42 1
    21   11   12 ar
    22   11   43 1
    23   12   13 1
    24   13   14 1
    25   13   44 1
    26   14   15 1
    27   14   45 1
    28   14   46 1
    29   15   16 1
    30   16   17 2
    31   16   18 am
    32   18   19 1
    33   18   47 1
    34   19   20 1
    35   19   21 1
    36   19   33 1
    37   21   22 1
    38   21   48 1
    39   21   49 1
    40   22   27 ar
    41   22   23 ar
    42   23   24 ar
    43   23   50 1
    44   24   25 ar
    45   24   51 1
    46   25   26 ar
    47   25   52 1
    48   26   27 ar
    49   26   32 1
    50   27   28 1
    51   28   29 1
    52   28   30 1
    53   28   31 1
    54   33   34 2
    55   33   35 1
@<TRIPOS>MOLECULE
ZINC02480932
   52    54     0     0     0
SMALL
USER_CHARGES
2-acetylamino-N-(2-chlorophenyl)-6-tert-butyl-4,5,6,7-tetrahydrobenzothiophene-3-carboxamide
@<TRIPOS>ATOM
      1 C1         -1.2495   -0.7818    0.0145 C.3       1 <0>        -0.1683
      2 C2          0.0392   -0.0006    0.0055 C.2       1 <0>         0.5071
      3 O1          1.1021   -0.5845   -0.0075 O.2       1 <0>        -0.5020
      4 N1          0.0105    1.3468    0.0119 N.am      1 <0>        -0.6229
      5 C3          1.1962    2.0656    0.0036 C.2       1 <0>         0.0779
      6 C4          1.3700    3.4425    0.0025 C.2       1 <0>        -0.2331
      7 C5          2.7325    3.9474   -0.0033 C.2       1 <0>        -0.0650
      8 C6          3.6964    3.0013   -0.0169 C.2       1 <0>        -0.2050
      9 S1          2.8205    1.4628   -0.0155 S.3       1 <0>         0.2346
     10 C7          5.1778    3.2212   -0.0293 C.3       1 <0>        -0.0344
     11 C8          5.4528    4.6825    0.3545 C.3       1 <0>        -0.0696
     12 H1          5.2532    4.8276    1.4162 H         1 <0>         0.0769
     13 C9          4.5345    5.5899   -0.4692 C.3       1 <0>        -0.1170
     14 C10         3.0874    5.4292   -0.0001 C.3       1 <0>        -0.0599
     15 C11         6.9139    5.0247    0.0560 C.3       1 <0>        -0.0624
     16 C12         7.1806    6.4860    0.4227 C.3       1 <0>        -0.1451
     17 C13         7.8290    4.1169    0.8801 C.3       1 <0>        -0.1459
     18 C14         7.1931    4.8136   -1.4334 C.3       1 <0>        -0.1483
     19 C15         0.2216    4.3537    0.0107 C.2       1 <0>         0.5877
     20 O2         -0.2474    4.7323    1.0682 O.2       1 <0>        -0.5071
     21 N2         -0.3148    4.7723   -1.1527 N.am      1 <0>        -0.6655
     22 C16        -1.4673    5.5657   -1.1464 C.ar      1 <0>         0.1527
     23 C17        -1.6685    6.4926   -0.1321 C.ar      1 <0>        -0.1102
     24 C18        -2.8048    7.2776   -0.1312 C.ar      1 <0>        -0.0947
     25 C19        -3.7473    7.1345   -1.1331 C.ar      1 <0>        -0.1206
     26 C20        -3.5534    6.2092   -2.1420 C.ar      1 <0>        -0.0919
     27 C21        -2.4159    5.4239   -2.1520 C.ar      1 <0>        -0.0651
     28 Cl1        -2.1730    4.2618   -3.4185 Cl        1 <0>        -0.0650
     29 H2         -1.5702   -0.9654   -1.0110 H         1 <0>         0.1047
     30 H3         -1.0939   -1.7335    0.5225 H         1 <0>         0.1063
     31 H4         -2.0165   -0.2114    0.5384 H         1 <0>         0.0873
     32 H5         -0.8397    1.8138    0.0183 H         1 <0>         0.4198
     33 H6          5.6537    2.5567    0.6918 H         1 <0>         0.0818
     34 H7          5.5701    3.0229   -1.0267 H         1 <0>         0.0883
     35 H8          4.6061    5.3176   -1.5222 H         1 <0>         0.0691
     36 H9          4.8429    6.6277   -0.3431 H         1 <0>         0.0754
     37 H10         2.4222    5.9657   -0.6767 H         1 <0>         0.0702
     38 H11         2.9841    5.8275    1.0093 H         1 <0>         0.0791
     39 H12         6.9817    6.6364    1.4838 H         1 <0>         0.0551
     40 H13         8.2215    6.7298    0.2101 H         1 <0>         0.0554
     41 H14         6.5287    7.1328   -0.1644 H         1 <0>         0.0588
     42 H15         7.6390    3.0758    0.6189 H         1 <0>         0.0575
     43 H16         8.8699    4.3607    0.6675 H         1 <0>         0.0556
     44 H17         7.6301    4.2673    1.9412 H         1 <0>         0.0554
     45 H18         6.5412    5.4604   -2.0206 H         1 <0>         0.0579
     46 H19         8.2340    5.0574   -1.6461 H         1 <0>         0.0547
     47 H20         7.0031    3.7726   -1.6947 H         1 <0>         0.0586
     48 H21         0.0982    4.5235   -1.9945 H         1 <0>         0.4149
     49 H22        -0.9353    6.6020    0.6533 H         1 <0>         0.1489
     50 H23        -2.9595    8.0014    0.6553 H         1 <0>         0.1342
     51 H24        -4.6367    7.7472   -1.1277 H         1 <0>         0.1349
     52 H25        -4.2915    6.0996   -2.9228 H         1 <0>         0.1381
@<TRIPOS>BOND
     1    1    2 1
     2    1   29 1
     3    1   30 1
     4    1   31 1
     5    2    3 2
     6    2    4 am
     7    4    5 1
     8    4   32 1
     9    5    9 1
    10    5    6 2
    11    6    7 1
    12    6   19 1
    13    7   14 1
    14    7    8 2
    15    8    9 1
    16    8   10 1
    17   10   11 1
    18   10   33 1
    19   10   34 1
    20   11   12 1
    21   11   13 1
    22   11   15 1
    23   13   14 1
    24   13   35 1
    25   13   36 1
    26   14   37 1
    27   14   38 1
    28   15   16 1
    29   15   17 1
    30   15   18 1
    31   16   39 1
    32   16   40 1
    33   16   41 1
    34   17   42 1
    35   17   43 1
    36   17   44 1
    37   18   45 1
    38   18   46 1
    39   18   47 1
    40   19   20 2
    41   19   21 am
    42   21   22 1
    43   21   48 1
    44   22   27 ar
    45   22   23 ar
    46   23   24 ar
    47   23   49 1
    48   24   25 ar
    49   24   50 1
    50   25   26 ar
    51   25   51 1
    52   26   27 ar
    53   26   52 1
    54   27   28 1
@<TRIPOS>MOLECULE
ZINC06733087
   57    61     0     0     0
SMALL
USER_CHARGES

@<TRIPOS>ATOM
      1 C1          0.6306   -0.2490   -1.3437 C.3       1 <0>        -0.1476
      2 C2         -0.3005   -0.3259   -0.1321 C.3       1 <0>        -0.0896
      3 C3          0.4881   -0.7452    1.0817 C.ar      1 <0>        -0.0647
      4 C4          0.6244   -2.0882    1.3844 C.ar      1 <0>        -0.1141
      5 C5          1.3456   -2.4785    2.4940 C.ar      1 <0>        -0.0804
      6 C6          1.9379   -1.5156    3.3114 C.ar      1 <0>        -0.0445
      7 C7          1.7967   -0.1630    3.0008 C.ar      1 <0>        -0.0946
      8 C8          1.0775    0.2143    1.8854 C.ar      1 <0>        -0.1153
      9 C9          2.7123   -1.9274    4.5033 C.2       1 <0>         0.1678
     10 C10         2.3313   -2.8345    5.4341 C.2       1 <0>        -0.2279
     11 C11         3.3616   -2.9284    6.3940 C.2       1 <0>         0.3082
     12 N1          4.3168   -2.1126    6.0568 N.2       1 <0>        -0.2967
     13 N2          3.9472   -1.4671    4.8657 N.pl3     1 <0>        -0.4709
     14 H1          4.4746   -0.8095    4.3858 H         1 <0>         0.4450
     15 N3          3.2457   -3.8034    7.4796 N.pl3     1 <0>        -0.6180
     16 C12         2.2799   -4.7774    7.4328 C.2       1 <0>         0.2500
     17 C13         2.4206   -5.9120    8.4236 C.3       1 <0>        -0.0919
     18 C14         1.0370   -6.4413    8.8033 C.3       1 <0>        -0.0521
     19 C15         0.3372   -6.9137    7.5242 C.3       1 <0>        -0.1600
     20 C16         0.2845   -5.7710    6.5501 C.2       1 <0>         0.4062
     21 C17         1.2554   -4.7519    6.5543 C.2       1 <0>        -0.2904
     22 C18         1.0729   -3.6485    5.5340 C.3       1 <0>         0.1040
     23 H2          0.8472   -4.0875    4.5622 H         1 <0>         0.0880
     24 C19        -0.0672   -2.7584    5.9570 C.ar      1 <0>        -0.0562
     25 C20         0.0035   -2.0648    7.1506 C.ar      1 <0>        -0.1064
     26 C21        -1.0423   -1.2483    7.5386 C.ar      1 <0>        -0.1247
     27 C22        -2.1587   -1.1252    6.7327 C.ar      1 <0>        -0.1246
     28 C23        -2.2291   -1.8181    5.5387 C.ar      1 <0>        -0.1204
     29 C24        -1.1814   -2.6312    5.1487 C.ar      1 <0>        -0.0945
     30 O1         -0.6186   -5.7257    5.7380 O.2       1 <0>        -0.4725
     31 C25         1.1819   -7.6138    9.7754 C.3       1 <0>        -0.1421
     32 C26         0.2192   -5.3257    9.4571 C.3       1 <0>        -0.1536
     33 H3          1.0777   -1.2272   -1.5210 H         1 <0>         0.0565
     34 H4          0.0602    0.0542   -2.2217 H         1 <0>         0.0599
     35 H5          1.4173    0.4806   -1.1517 H         1 <0>         0.0556
     36 H6         -0.7476    0.6523    0.0452 H         1 <0>         0.0738
     37 H7         -1.0872   -1.0555   -0.3241 H         1 <0>         0.0749
     38 H8          0.1651   -2.8327    0.7510 H         1 <0>         0.1284
     39 H9          1.4511   -3.5273    2.7295 H         1 <0>         0.1278
     40 H10         2.2529    0.5871    3.6298 H         1 <0>         0.1217
     41 H11         0.9709    1.2610    1.6416 H         1 <0>         0.1261
     42 H12         3.0052   -6.7149    7.9747 H         1 <0>         0.1022
     43 H13         2.9286   -5.5513    9.3180 H         1 <0>         0.0903
     44 H14         0.8956   -7.7412    7.0866 H         1 <0>         0.0993
     45 H15        -0.6751   -7.2411    7.7613 H         1 <0>         0.0964
     46 H16         0.8757   -2.1610    7.7802 H         1 <0>         0.1093
     47 H17        -0.9874   -0.7070    8.4715 H         1 <0>         0.1155
     48 H18        -2.9761   -0.4878    7.0362 H         1 <0>         0.1168
     49 H19        -3.1014   -1.7221    4.9092 H         1 <0>         0.1180
     50 H20        -1.2347   -3.1697    4.2140 H         1 <0>         0.1183
     51 H21         3.8336   -3.7234    8.2470 H         1 <0>         0.4213
     52 H22         1.6995   -7.2787   10.6743 H         1 <0>         0.0612
     53 H23         0.1938   -7.9879   10.0433 H         1 <0>         0.0641
     54 H24         1.7557   -8.4101    9.3013 H         1 <0>         0.0604
     55 H25         0.1094   -4.4976    8.7570 H         1 <0>         0.0647
     56 H26        -0.7659   -5.7072    9.7260 H         1 <0>         0.0621
     57 H27         0.7314   -4.9777   10.3542 H         1 <0>         0.0596
@<TRIPOS>BOND
     1    1    2 1
     2    1   33 1
     3    1   34 1
     4    1   35 1
     5    2    3 1
     6    2   36 1
     7    2   37 1
     8    3    8 ar
     9    3    4 ar
    10    4    5 ar
    11    4   38 1
    12    5    6 ar
    13    5   39 1
    14    6    7 ar
    15    6    9 1
    16    7    8 ar
    17    7   40 1
    18    8   41 1
    19    9   13 1
    20    9   10 2
    21   10   22 1
    22   10   11 1
    23   11   12 2
    24   11   15 1
    25   12   13 1
    26   13   14 1
    27   15   16 1
    28   15   51 1
    29   16   21 2
    30   16   17 1
    31   17   18 1
    32   17   42 1
    33   17   43 1
    34   18   19 1
    35   18   31 1
    36   18   32 1
    37   19   44 1
    38   19   45 1
    39   19   20 1
    40   20   30 2
    41   20   21 1
    42   21   22 1
    43   22   23 1
    44   22   24 1
    45   24   29 ar
    46   24   25 ar
    47   25   26 ar
    48   25   46 1
    49   26   27 ar
    50   26   47 1
    51   27   28 ar
    52   27   48 1
    53   28   29 ar
    54   28   49 1
    55   29   50 1
    56   31   52 1
    57   31   53 1
    58   31   54 1
    59   32   55 1
    60   32   56 1
    61   32   57 1
@<TRIPOS>MOLECULE
ZINC19816097
   58    62     0     0     0
SMALL
USER_CHARGES
(4S,8E)-2-amino-6-benzyl-4-(3-fluorophenyl)-8-[(3-fluorophenyl)methylene]-5,7-dihydro-4H-pyrano[5,6-c]pyridine-3-carbonitrile
@<TRIPOS>ATOM
      1 C1          3.5178    4.3981   -2.1903 C.ar      1 <0>        -0.1174
      2 C2          3.5486    3.0614   -1.8395 C.ar      1 <0>        -0.1171
      3 C3          2.4006    2.2966   -1.9293 C.ar      1 <0>        -0.1149
      4 C4          1.2217    2.8686   -2.3695 C.ar      1 <0>        -0.0811
      5 C5          1.1921    4.2041   -2.7253 C.ar      1 <0>        -0.0954
      6 C6          2.3391    4.9700   -2.6314 C.ar      1 <0>        -0.1193
      7 C7         -0.0299    2.0349   -2.4674 C.3       1 <0>         0.0920
      8 N1         -0.7613    2.0984   -1.1950 N.3       1 <0>        -0.5240
      9 C8          0.0052    1.4548   -0.1123 C.3       1 <0>         0.0780
     10 C9         -0.7359    1.7291    1.1795 C.2       1 <0>        -0.0529
     11 C10        -0.0763    2.0437    2.3084 C.2       1 <0>        -0.0843
     12 C11         1.3942    1.9631    2.3492 C.ar      1 <0>        -0.0269
     13 C12         2.0654    0.9941    1.5976 C.ar      1 <0>        -0.1250
     14 C13         3.4422    0.9274    1.6354 C.ar      1 <0>        -0.0876
     15 C14         4.1603    1.8091    2.4238 C.ar      1 <0>        -0.1488
     16 C15         3.5027    2.7691    3.1765 C.ar      1 <0>         0.1023
     17 C16         2.1239    2.8510    3.1436 C.ar      1 <0>        -0.1379
     18 F1          4.2110    3.6260    3.9441 F         1 <0>        -0.1379
     19 C17        -2.2125    1.6388    1.1504 C.2       1 <0>         0.1108
     20 C18        -2.8454    1.5379   -0.0193 C.2       1 <0>        -0.1448
     21 C19        -2.0876    1.4920   -1.3215 C.3       1 <0>         0.1005
     22 C20        -4.3529    1.4660   -0.0669 C.3       1 <0>         0.0857
     23 H1         -4.6528    0.7050   -0.8024 H         1 <0>         0.0960
     24 C21        -4.9017    1.0816    1.2776 C.2       1 <0>        -0.2990
     25 C22        -4.1431    1.2031    2.3956 C.2       1 <0>         0.4540
     26 O1         -2.8847    1.6706    2.3270 O.3       1 <0>        -0.2490
     27 N2         -4.6673    0.8445    3.6124 N.pl3     1 <0>        -0.8533
     28 C23        -6.2395    0.5812    1.3801 C.1       1 <0>         0.2753
     29 N3         -7.3008    0.1842    1.4615 N.1       1 <0>        -0.4518
     30 C24        -4.9040    2.8126   -0.4595 C.ar      1 <0>        -0.0430
     31 C25        -4.6494    3.9199    0.3285 C.ar      1 <0>        -0.1069
     32 C26        -5.1502    5.1565   -0.0329 C.ar      1 <0>        -0.0876
     33 C27        -5.9150    5.2855   -1.1770 C.ar      1 <0>        -0.1550
     34 C28        -6.1750    4.1766   -1.9638 C.ar      1 <0>         0.0997
     35 C29        -5.6684    2.9391   -1.6036 C.ar      1 <0>        -0.1486
     36 F2         -6.9228    4.3014   -3.0820 F         1 <0>        -0.1401
     37 H2          4.4145    4.9958   -2.1195 H         1 <0>         0.1201
     38 H3          4.4695    2.6146   -1.4949 H         1 <0>         0.1202
     39 H4          2.4247    1.2522   -1.6552 H         1 <0>         0.1168
     40 H5          0.2721    4.6499   -3.0734 H         1 <0>         0.1224
     41 H6          2.3149    6.0144   -2.9051 H         1 <0>         0.1214
     42 H7         -0.6666    2.4230   -3.2761 H         1 <0>         0.0915
     43 H8          0.2409    0.9908   -2.6830 H         1 <0>         0.0493
     44 H9          0.0691    0.3730   -0.3013 H         1 <0>         0.0556
     45 H10         1.0185    1.8813   -0.0768 H         1 <0>         0.1161
     46 H11        -0.6347    2.3612    3.2014 H         1 <0>         0.1391
     47 H12         1.5068    0.3017    0.9852 H         1 <0>         0.1330
     48 H13         3.9614    0.1816    1.0517 H         1 <0>         0.1350
     49 H14         5.2382    1.7487    2.4530 H         1 <0>         0.1360
     50 H15         1.6117    3.5990    3.7306 H         1 <0>         0.1382
     51 H16        -2.6687    2.0362   -2.0806 H         1 <0>         0.0988
     52 H17        -1.9824    0.4399   -1.6249 H         1 <0>         0.0566
     53 H18        -4.0583    0.9402    4.5234 H         1 <0>         0.4337
     54 H19        -5.6964    0.4614    3.6766 H         1 <0>         0.4503
     55 H20        -4.0553    3.8193    1.2247 H         1 <0>         0.1221
     56 H21        -4.9472    6.0215    0.5811 H         1 <0>         0.1316
     57 H22        -6.3099    6.2510   -1.4568 H         1 <0>         0.1339
     58 H23        -5.8703    2.0734   -2.2169 H         1 <0>         0.1337
@<TRIPOS>BOND
     1    1    6 ar
     2    1    2 ar
     3    1   37 1
     4    2    3 ar
     5    2   38 1
     6    3    4 ar
     7    3   39 1
     8    4    5 ar
     9    4    7 1
    10    5    6 ar
    11    5   40 1
    12    6   41 1
    13    7    8 1
    14    7   42 1
    15    7   43 1
    16    8   21 1
    17    8    9 1
    18    9   10 1
    19    9   44 1
    20    9   45 1
    21   10   11 2
    22   10   19 1
    23   11   12 1
    24   11   46 1
    25   12   17 ar
    26   12   13 ar
    27   13   14 ar
    28   13   47 1
    29   14   15 ar
    30   14   48 1
    31   15   16 ar
    32   15   49 1
    33   16   17 ar
    34   16   18 1
    35   17   50 1
    36   19   26 1
    37   19   20 2
    38   20   21 1
    39   20   22 1
    40   21   51 1
    41   21   52 1
    42   22   23 1
    43   22   24 1
    44   22   30 1
    45   24   25 2
    46   24   28 1
    47   25   26 1
    48   25   27 1
    49   27   53 1
    50   27   54 1
    51   28   29 3
    52   30   35 ar
    53   30   31 ar
    54   31   32 ar
    55   31   55 1
    56   32   33 ar
    57   32   56 1
    58   33   34 ar
    59   33   57 1
    60   34   35 ar
    61   34   36 1
    62   35   58 1
@<TRIPOS>MOLECULE
ZINC21224422
   54    58     0     0     0
SMALL
USER_CHARGES
(6R,9S)-6-(2-chloro-6-fluoro-phenyl)-9-(2-methoxyphenyl)-5,6,8,9,10,11-hexahydrobenzo[c][1,5]benzodiazepin-7-one
@<TRIPOS>ATOM
      1 C1          7.4607   -4.1412    0.3483 C.3       1 <0>         0.0232
      2 O1          6.5084   -3.3443   -0.3588 O.3       1 <0>        -0.3143
      3 C2          6.9225   -2.7743   -1.5209 C.ar      1 <0>         0.1334
      4 C3          8.2188   -2.9784   -1.9718 C.ar      1 <0>        -0.2062
      5 C4          8.6371   -2.3984   -3.1535 C.ar      1 <0>        -0.0803
      6 C5          7.7652   -1.6150   -3.8871 C.ar      1 <0>        -0.1538
      7 C6          6.4715   -1.4144   -3.4428 C.ar      1 <0>        -0.0772
      8 C7          6.0498   -1.9880   -2.2587 C.ar      1 <0>        -0.1119
      9 C8          4.6411   -1.7648   -1.7722 C.3       1 <0>        -0.0314
     10 H1          4.5313   -2.2967   -0.8156 H         1 <0>         0.0979
     11 C9          4.3849   -0.2696   -1.5928 C.3       1 <0>        -0.0959
     12 C10         2.9597   -0.0425   -1.1137 C.2       1 <0>         0.2664
     13 C11         1.9733   -0.8630   -1.5075 C.2       1 <0>        -0.2957
     14 C12         0.5138   -0.7374   -1.1363 C.3       1 <0>         0.2876
     15 H2          0.1844   -1.7009   -0.7202 H         1 <0>         0.1018
     16 N1          0.2488    0.2136   -0.0777 N.pl3     1 <0>        -0.7744
     17 C13         0.5022    1.5714   -0.2524 C.ar      1 <0>         0.1669
     18 C14        -0.5274    2.5001   -0.2742 C.ar      1 <0>        -0.1256
     19 C15        -0.2368    3.8340   -0.4995 C.ar      1 <0>        -0.1133
     20 C16         1.0686    4.2425   -0.7042 C.ar      1 <0>        -0.1219
     21 C17         2.1015    3.3210   -0.6650 C.ar      1 <0>        -0.1181
     22 C18         1.8135    1.9906   -0.4177 C.ar      1 <0>         0.1246
     23 N2          2.8077    1.0255   -0.2889 N.pl3     1 <0>        -0.6985
     24 C19        -0.2543   -0.3155   -2.3623 C.ar      1 <0>        -0.0998
     25 C20         0.4239    0.0611   -3.5091 C.ar      1 <0>         0.1263
     26 C21        -0.2829    0.4485   -4.6347 C.ar      1 <0>        -0.1533
     27 C22        -1.6650    0.4592   -4.6132 C.ar      1 <0>        -0.0804
     28 C23        -2.3420    0.0837   -3.4684 C.ar      1 <0>        -0.1247
     29 C24        -1.6371   -0.3097   -2.3443 C.ar      1 <0>         0.0092
     30 Cl1        -2.4886   -0.7887   -0.9093 Cl        1 <0>        -0.0536
     31 F1          1.7747    0.0509   -3.5295 F         1 <0>        -0.1242
     32 C25         2.2550   -1.9686   -2.3445 C.2       1 <0>         0.4082
     33 O2          1.3388   -2.6855   -2.6965 O.2       1 <0>        -0.4814
     34 C26         3.6432   -2.2877   -2.8123 C.3       1 <0>        -0.1563
     35 H3          6.9982   -4.5392    1.2636 H         1 <0>         0.1027
     36 H4          8.3299   -3.5225    0.6159 H         1 <0>         0.0566
     37 H5          7.7870   -4.9754   -0.2902 H         1 <0>         0.0571
     38 H6          8.9003   -3.5899   -1.3990 H         1 <0>         0.1284
     39 H7          9.6459   -2.5573   -3.5050 H         1 <0>         0.1248
     40 H8          8.0941   -1.1623   -4.8109 H         1 <0>         0.1245
     41 H9          5.7912   -0.8055   -4.0196 H         1 <0>         0.1281
     42 H10         5.0866    0.1360   -0.8491 H         1 <0>         0.0836
     43 H11         4.5310    0.2454   -2.5538 H         1 <0>         0.0938
     44 H12        -0.1592   -0.1327    0.8833 H         1 <0>         0.4175
     45 H13        -1.5483    2.1845   -0.1172 H         1 <0>         0.1230
     46 H14        -1.0349    4.5615   -0.5150 H         1 <0>         0.1213
     47 H15         1.2830    5.2835   -0.8956 H         1 <0>         0.1232
     48 H16         3.1215    3.6377   -0.8254 H         1 <0>         0.1238
     49 H17         3.5001    1.1732    0.5530 H         1 <0>         0.4252
     50 H18         0.2455    0.7427   -5.5294 H         1 <0>         0.1382
     51 H19        -2.2161    0.7615   -5.4915 H         1 <0>         0.1410
     52 H20        -3.4219    0.0927   -3.4525 H         1 <0>         0.1386
     53 H21         3.8337   -1.8011   -3.7802 H         1 <0>         0.0998
     54 H22         3.7617   -3.3760   -2.9195 H         1 <0>         0.0954
@<TRIPOS>BOND
     1    1    2 1
     2    1   35 1
     3    1   36 1
     4    1   37 1
     5    2    3 1
     6    3    8 ar
     7    3    4 ar
     8    4    5 ar
     9    4   38 1
    10    5    6 ar
    11    5   39 1
    12    6    7 ar
    13    6   40 1
    14    7    8 ar
    15    7   41 1
    16    8    9 1
    17    9   10 1
    18    9   34 1
    19    9   11 1
    20   11   12 1
    21   11   42 1
    22   11   43 1
    23   12   23 1
    24   12   13 2
    25   13   14 1
    26   13   32 1
    27   14   15 1
    28   14   16 1
    29   14   24 1
    30   16   17 1
    31   16   44 1
    32   17   22 ar
    33   17   18 ar
    34   18   19 ar
    35   18   45 1
    36   19   20 ar
    37   19   46 1
    38   20   21 ar
    39   20   47 1
    40   21   22 ar
    41   21   48 1
    42   22   23 1
    43   23   49 1
    44   24   29 ar
    45   24   25 ar
    46   25   26 ar
    47   25   31 1
    48   26   27 ar
    49   26   50 1
    50   27   28 ar
    51   27   51 1
    52   28   29 ar
    53   28   52 1
    54   29   30 1
    55   32   33 2
    56   32   34 1
    57   34   53 1
    58   34   54 1
@<TRIPOS>MOLECULE
ZINC43766975
   63    66     0     0     0
SMALL
USER_CHARGES

@<TRIPOS>ATOM
      1 C1          0.1466    1.5511    0.0844 C.3       1 <0>        -0.1526
      2 C2          0.1907    0.0223    0.0454 C.3       1 <0>        -0.1170
      3 C3          0.8696   -0.4359   -1.2484 C.3       1 <0>        -0.0802
      4 H1          1.8482    0.0364   -1.3391 H         1 <0>         0.0750
      5 C4         -0.0095   -0.0825   -2.4631 C.3       1 <0>        -0.1209
      6 C5          0.2029   -1.2564   -3.4625 C.3       1 <0>        -0.0705
      7 H2         -0.6706   -1.3659   -4.1180 H         1 <0>         0.0880
      8 C6          1.4739   -0.9641   -4.2474 C.3       1 <0>        -0.0897
      9 H3          2.2510   -0.6778   -3.5043 H         1 <0>         0.0884
     10 C7          1.2768    0.2619   -5.1388 C.3       1 <0>        -0.1140
     11 C8          0.3473   -0.0785   -6.3098 C.3       1 <0>        -0.0903
     12 C9          1.0205   -1.2065   -7.0760 C.2       1 <0>        -0.0489
     13 C10         1.3045   -1.0120   -8.3554 C.2       1 <0>        -0.1284
     14 C11         1.9777   -2.0960   -9.0976 C.2       1 <0>         0.1670
     15 N1          1.8079   -2.2841  -10.3649 N.2       1 <0>        -0.3350
     16 O1          2.4827   -3.3424  -11.0203 O.3       1 <0>        -0.4136
     17 C12         2.8868   -2.9727   -8.2555 C.3       1 <0>        -0.1132
     18 C13         2.0525   -3.5297   -7.1070 C.3       1 <0>        -0.1088
     19 C14         1.3100   -2.4680   -6.3195 C.3       1 <0>        -0.0088
     20 C15         2.0113   -2.1532   -5.0117 C.3       1 <0>        -0.0574
     21 H4          3.0592   -1.8583   -5.3125 H         1 <0>         0.0600
     22 C16         2.1896   -3.3693   -4.1200 C.3       1 <0>        -0.1291
     23 C17         1.0439   -3.6510   -3.1783 C.3       1 <0>        -0.1027
     24 C18         0.3690   -2.4718   -2.5390 C.3       1 <0>        -0.0297
     25 C19         1.0206   -1.9697   -1.2509 C.3       1 <0>        -0.0776
     26 H5          0.4779   -2.3823   -0.3874 H         1 <0>         0.0939
     27 C20         2.4718   -2.3420   -1.1376 C.2       1 <0>         0.1553
     28 N2          2.8622   -3.1155   -0.1961 N.2       1 <0>        -0.3442
     29 O2          1.9141   -3.7057    0.6744 O.3       1 <0>        -0.4155
     30 C21         3.4675   -1.8045   -2.1329 C.3       1 <0>        -0.1475
     31 C22        -1.0588   -2.9379   -2.1594 C.3       1 <0>        -0.1485
     32 C23        -0.0559   -3.0927   -6.0231 C.3       1 <0>        -0.1539
     33 H6          1.1623    1.9450    0.0479 H         1 <0>         0.0528
     34 H7         -0.4173    1.9204   -0.7722 H         1 <0>         0.0565
     35 H8         -0.3366    1.8773    1.0054 H         1 <0>         0.0528
     36 H9          0.7546   -0.3470    0.9020 H         1 <0>         0.0580
     37 H10        -0.8250   -0.3716    0.0819 H         1 <0>         0.0626
     38 H11        -1.0591   -0.0117   -2.1707 H         1 <0>         0.0677
     39 H12         0.3119    0.8641   -2.8992 H         1 <0>         0.0730
     40 H13         0.8492    1.0809   -4.5644 H         1 <0>         0.0747
     41 H14         2.2463    0.5771   -5.5343 H         1 <0>         0.0653
     42 H15        -0.6269   -0.3877   -5.9447 H         1 <0>         0.0828
     43 H16         0.2400    0.7915   -6.9595 H         1 <0>         0.0737
     44 H17         1.0499   -0.0850   -8.8441 H         1 <0>         0.1336
     45 H18         2.2930   -3.4036  -11.9666 H         1 <0>         0.4034
     46 H19         3.2750   -3.7907   -8.8635 H         1 <0>         0.0846
     47 H20         3.7138   -2.3805   -7.8646 H         1 <0>         0.0864
     48 H21         1.3171   -4.2278   -7.5105 H         1 <0>         0.0674
     49 H22         2.7123   -4.0719   -6.4316 H         1 <0>         0.0797
     50 H23         2.3506   -4.2614   -4.7504 H         1 <0>         0.0664
     51 H24         3.1250   -3.2545   -3.5487 H         1 <0>         0.0762
     52 H25         0.2745   -4.2389   -3.7077 H         1 <0>         0.0624
     53 H26         1.3911   -4.3354   -2.3861 H         1 <0>         0.0548
     54 H27         2.3068   -4.2116    1.3989 H         1 <0>         0.3996
     55 H28         3.7819   -0.8060   -1.8293 H         1 <0>         0.0805
     56 H29         4.3353   -2.4629   -2.1705 H         1 <0>         0.0774
     57 H30         3.0055   -1.7557   -3.1190 H         1 <0>         0.1297
     58 H31        -1.6049   -3.2083   -3.0631 H         1 <0>         0.0559
     59 H32        -0.9952   -3.8038   -1.5005 H         1 <0>         0.0533
     60 H33        -1.5809   -2.1294   -1.6476 H         1 <0>         0.0567
     61 H34        -0.6067   -3.2206   -6.9549 H         1 <0>         0.0513
     62 H35         0.0841   -4.0634   -5.5475 H         1 <0>         0.0631
     63 H36        -0.6174   -2.4387   -5.3559 H         1 <0>         0.0680
@<TRIPOS>BOND
     1    1    2 1
     2    1   33 1
     3    1   34 1
     4    1   35 1
     5    2    3 1
     6    2   36 1
     7    2   37 1
     8    3    4 1
     9    3   25 1
    10    3    5 1
    11    5    6 1
    12    5   38 1
    13    5   39 1
    14    6    7 1
    15    6   24 1
    16    6    8 1
    17    8    9 1
    18    8   20 1
    19    8   10 1
    20   10   11 1
    21   10   40 1
    22   10   41 1
    23   11   12 1
    24   11   42 1
    25   11   43 1
    26   12   19 1
    27   12   13 2
    28   13   14 1
    29   13   44 1
    30   14   15 2
    31   14   17 1
    32   15   16 1
    33   16   45 1
    34   17   18 1
    35   17   46 1
    36   17   47 1
    37   18   19 1
    38   18   48 1
    39   18   49 1
    40   19   20 1
    41   19   32 1
    42   20   21 1
    43   20   22 1
    44   22   23 1
    45   22   50 1
    46   22   51 1
    47   23   24 1
    48   23   52 1
    49   23   53 1
    50   24   25 1
    51   24   31 1
    52   25   26 1
    53   25   27 1
    54   27   28 2
    55   27   30 1
    56   28   29 1
    57   29   54 1
    58   30   55 1
    59   30   56 1
    60   30   57 1
    61   31   58 1
    62   31   59 1
    63   31   60 1
    64   32   61 1
    65   32   62 1
    66   32   63 1
@<TRIPOS>MOLECULE
ZINC09152904
   54    58     0     0     0
SMALL
USER_CHARGES

@<TRIPOS>ATOM
      1 C1          0.2393    1.3805   -0.1697 C.3       1 <0>        -0.1143
      2 C2          0.1955   -0.1257   -0.1452 C.ar      1 <0>        -0.0892
      3 C3          0.0668   -0.8327   -1.3261 C.ar      1 <0>        -0.1197
      4 C4          0.0266   -2.2142   -1.3036 C.ar      1 <0>        -0.0901
      5 C5          0.1155   -2.8888   -0.1003 C.ar      1 <0>        -0.0643
      6 C6          0.2451   -2.1818    1.0804 C.ar      1 <0>        -0.1021
      7 C7          0.2896   -0.8004    1.0576 C.ar      1 <0>        -0.1251
      8 C8          0.0706   -4.3950   -0.0758 C.3       1 <0>         0.1047
      9 H1         -0.0534   -4.7707   -1.0914 H         1 <0>         0.0881
     10 C9         -1.0864   -4.8467    0.7689 C.2       1 <0>        -0.2396
     11 C10        -2.4568   -4.8178    0.4958 C.2       1 <0>         0.1537
     12 N1         -3.0916   -5.3183    1.5393 N.2       1 <0>        -0.2687
     13 N2         -2.1393   -5.6802    2.5058 N.pl3     1 <0>        -0.4727
     14 H2         -2.3265   -6.0723    3.3731 H         1 <0>         0.4415
     15 C11        -0.9195   -5.3863    2.0148 C.2       1 <0>         0.3179
     16 N3          0.3454   -5.5551    2.5668 N.pl3     1 <0>        -0.6307
     17 C12         1.4378   -5.4614    1.7412 C.2       1 <0>         0.2370
     18 C13         1.3633   -4.9278    0.5039 C.2       1 <0>        -0.2755
     19 C14         2.5051   -4.8411   -0.3128 C.2       1 <0>         0.4043
     20 O1          2.4045   -4.3623   -1.4254 O.2       1 <0>        -0.4649
     21 C15         3.8468   -5.3274    0.1587 C.3       1 <0>        -0.1605
     22 C16         3.9097   -5.2038    1.6850 C.3       1 <0>        -0.0522
     23 C17         2.7464   -5.9958    2.2771 C.3       1 <0>        -0.0894
     24 C18         5.2346   -5.7747    2.1946 C.3       1 <0>        -0.1424
     25 C19         3.7919   -3.7327    2.0886 C.3       1 <0>        -0.1538
     26 C20        -3.0877   -4.3123   -0.7489 C.ar      1 <0>        -0.0085
     27 C21        -2.5310   -4.6186   -1.9888 C.ar      1 <0>        -0.0792
     28 C22        -3.1215   -4.1467   -3.1434 C.ar      1 <0>        -0.1083
     29 C23        -4.2652   -3.3701   -3.0709 C.ar      1 <0>        -0.0248
     30 C24        -4.8218   -3.0627   -1.8413 C.ar      1 <0>        -0.1100
     31 C25        -4.2419   -3.5348   -0.6814 C.ar      1 <0>        -0.0763
     32 Cl1        -5.0035   -2.7793   -4.5268 Cl        1 <0>        -0.0674
     33 H3          1.2724    1.7123   -0.2733 H         1 <0>         0.0682
     34 H4         -0.3463    1.7474   -1.0127 H         1 <0>         0.0651
     35 H5         -0.1764    1.7713    0.7590 H         1 <0>         0.0631
     36 H6         -0.0026   -0.3056   -2.2662 H         1 <0>         0.1185
     37 H7         -0.0746   -2.7666   -2.2262 H         1 <0>         0.1194
     38 H8          0.3142   -2.7089    2.0206 H         1 <0>         0.1071
     39 H9          0.3946   -0.2481    1.9798 H         1 <0>         0.1146
     40 H10         0.4533   -5.7348    3.5139 H         1 <0>         0.4179
     41 H11         3.9790   -6.3704   -0.1290 H         1 <0>         0.1003
     42 H12         4.6335   -4.7205   -0.2896 H         1 <0>         0.0976
     43 H13         2.7597   -5.9001    3.3628 H         1 <0>         0.0892
     44 H14         2.8472   -7.0466    2.0055 H         1 <0>         0.1021
     45 H15         6.0628   -5.2206    1.7528 H         1 <0>         0.0649
     46 H16         5.2754   -5.6849    3.2801 H         1 <0>         0.0611
     47 H17         5.3095   -6.8252    1.9138 H         1 <0>         0.0606
     48 H18         2.8423   -3.3332    1.7326 H         1 <0>         0.0646
     49 H19         3.8370   -3.6491    3.1745 H         1 <0>         0.0593
     50 H20         4.6124   -3.1678    1.6463 H         1 <0>         0.0630
     51 H21        -1.6385   -5.2241   -2.0463 H         1 <0>         0.1358
     52 H22        -2.6905   -4.3833   -4.1049 H         1 <0>         0.1387
     53 H23        -5.7138   -2.4559   -1.7897 H         1 <0>         0.1370
     54 H24        -4.6796   -3.2984    0.2772 H         1 <0>         0.1346
@<TRIPOS>BOND
     1    1    2 1
     2    1   33 1
     3    1   34 1
     4    1   35 1
     5    2    7 ar
     6    2    3 ar
     7    3    4 ar
     8    3   36 1
     9    4    5 ar
    10    4   37 1
    11    5    6 ar
    12    5    8 1
    13    6    7 ar
    14    6   38 1
    15    7   39 1
    16    8    9 1
    17    8   18 1
    18    8   10 1
    19   10   15 2
    20   10   11 1
    21   11   12 2
    22   11   26 1
    23   12   13 1
    24   13   14 1
    25   13   15 1
    26   15   16 1
    27   16   17 1
    28   16   40 1
    29   17   23 1
    30   17   18 2
    31   18   19 1
    32   19   20 2
    33   19   21 1
    34   21   22 1
    35   21   41 1
    36   21   42 1
    37   22   23 1
    38   22   24 1
    39   22   25 1
    40   23   43 1
    41   23   44 1
    42   24   45 1
    43   24   46 1
    44   24   47 1
    45   25   48 1
    46   25   49 1
    47   25   50 1
    48   26   31 ar
    49   26   27 ar
    50   27   28 ar
    51   27   51 1
    52   28   29 ar
    53   28   52 1
    54   29   30 ar
    55   29   32 1
    56   30   31 ar
    57   30   53 1
    58   31   54 1
@<TRIPOS>MOLECULE
ZINC34923325
   64    66     0     0     0
SMALL
USER_CHARGES

@<TRIPOS>ATOM
      1 C1         -0.1491    0.2560   -1.4141 C.3       1 <0>        -0.1083
      2 C2         -0.2598   -1.2410   -1.2805 C.ar      1 <0>        -0.0939
      3 C3         -0.4427   -2.0238   -2.4053 C.ar      1 <0>        -0.1228
      4 C4         -0.5443   -3.3968   -2.2827 C.ar      1 <0>        -0.1193
      5 C5         -0.4625   -3.9873   -1.0353 C.ar      1 <0>        -0.0947
      6 C6         -0.2788   -3.2048    0.0891 C.ar      1 <0>        -0.0664
      7 C7         -0.1729   -1.8318   -0.0340 C.ar      1 <0>        -0.0758
      8 C8         -0.1901   -3.8485    1.4488 C.3       1 <0>         0.2608
      9 H1          0.2253   -3.1135    2.1382 H         1 <0>         0.0723
     10 C9         -1.5959   -4.1711    1.9038 C.2       1 <0>        -0.3903
     11 C10        -1.8907   -5.4879    2.2008 C.2       1 <0>         0.3004
     12 N1         -0.9634   -6.4247    2.0868 N.2       1 <0>        -0.5971
     13 C11         0.2765   -6.2112    1.6971 C.2       1 <0>         0.3198
     14 N2          0.7677   -4.9825    1.3570 N.pl3     1 <0>        -0.5129
     15 C12         2.0912   -4.9231    0.9683 C.2       1 <0>         0.2338
     16 C13         2.7928   -6.0779    0.9538 C.2       1 <0>        -0.3075
     17 S1          1.5737   -7.2568    1.4942 S.3       1 <0>         0.1424
     18 C14         2.7148   -3.6489    0.5833 C.2       1 <0>        -0.4660
     19 C15         3.9640   -3.6355    0.0797 C.2       1 <0>         0.5024
     20 O1          4.6015   -4.8024   -0.1823 O.3       1 <0>        -0.7044
     21 N3          4.5968   -2.4295   -0.1702 N.pl3     1 <0>        -0.7569
     22 C16         5.9093   -2.4121   -0.8208 C.3       1 <0>         0.1407
     23 C17         6.4353   -0.9762   -0.8694 C.3       1 <0>        -0.1257
     24 C18         7.7429   -0.9386   -1.6630 C.3       1 <0>        -0.0937
     25 C19         8.1647    0.5156   -1.8824 C.3       1 <0>        -0.1453
     26 C20         8.8343   -1.6740   -0.8827 C.3       1 <0>        -0.1490
     27 C21        -3.2777   -5.8596    2.6583 C.3       1 <0>        -0.1066
     28 C22        -2.5664   -3.1686    2.0205 C.2       1 <0>         0.5376
     29 O2         -3.7204   -3.4645    2.2773 O.2       1 <0>        -0.5491
     30 O3         -2.2233   -1.8728    1.8485 O.3       1 <0>        -0.3472
     31 C23        -3.2642   -0.9029    1.9820 C.3       1 <0>         0.0824
     32 C24        -3.3508   -0.4450    3.4393 C.3       1 <0>        -0.1677
     33 C25        -2.9587    0.2997    1.0869 C.3       1 <0>        -0.1472
     34 H2          0.9019    0.5386   -1.4744 H         1 <0>         0.0651
     35 H3         -0.6646    0.5791   -2.3185 H         1 <0>         0.0590
     36 H4         -0.6044    0.7329   -0.5462 H         1 <0>         0.0635
     37 H5         -0.5066   -1.5625   -3.3797 H         1 <0>         0.1126
     38 H6         -0.6879   -4.0082   -3.1613 H         1 <0>         0.1134
     39 H7         -0.5426   -5.0601   -0.9394 H         1 <0>         0.1022
     40 H8         -0.0255   -1.2207    0.8442 H         1 <0>         0.1179
     41 H9          3.8256   -6.2429    0.6847 H         1 <0>         0.2328
     42 H10         2.1714   -2.7234    0.7042 H         1 <0>         0.0868
     43 H11         4.1710   -1.5963    0.0854 H         1 <0>         0.3835
     44 H12         6.6032   -3.0343   -0.2557 H         1 <0>         0.0557
     45 H13         5.8171   -2.7998   -1.8354 H         1 <0>         0.0432
     46 H14         5.6982   -0.3353   -1.3532 H         1 <0>         0.0612
     47 H15         6.6157   -0.6208    0.1451 H         1 <0>         0.0626
     48 H16         7.5964   -1.4240   -2.6279 H         1 <0>         0.0705
     49 H17         8.3113    1.0010   -0.9175 H         1 <0>         0.0525
     50 H18         9.0963    0.5424   -2.4477 H         1 <0>         0.0519
     51 H19         7.3872    1.0395   -2.4383 H         1 <0>         0.0523
     52 H20         8.5822   -2.7323   -0.8150 H         1 <0>         0.0605
     53 H21         9.7884   -1.5600   -1.3973 H         1 <0>         0.0501
     54 H22         8.9099   -1.2537    0.1202 H         1 <0>         0.0527
     55 H23        -3.9185   -6.0107    1.7896 H         1 <0>         0.0809
     56 H24        -3.2336   -6.7792    3.2417 H         1 <0>         0.0636
     57 H25        -3.6841   -5.0575    3.2745 H         1 <0>         0.1028
     58 H26        -4.2143   -1.3460    1.6834 H         1 <0>         0.0769
     59 H27        -4.1447    0.2948    3.5412 H         1 <0>         0.0652
     60 H28        -3.5685   -1.3018    4.0770 H         1 <0>         0.0595
     61 H29        -2.4007   -0.0019    3.7380 H         1 <0>         0.0608
     62 H30        -2.8970   -0.0265    0.0487 H         1 <0>         0.0637
     63 H31        -3.7527    1.0395    1.1888 H         1 <0>         0.0687
     64 H32        -2.0086    0.7428    1.3855 H         1 <0>         0.0632
@<TRIPOS>BOND
     1    1    2 1
     2    1   34 1
     3    1   35 1
     4    1   36 1
     5    2    7 ar
     6    2    3 ar
     7    3    4 ar
     8    3   37 1
     9    4    5 ar
    10    4   38 1
    11    5    6 ar
    12    5   39 1
    13    6    7 ar
    14    6    8 1
    15    7   40 1
    16    8    9 1
    17    8   14 1
    18    8   10 1
    19   10   11 2
    20   10   28 1
    21   11   12 1
    22   11   27 1
    23   12   13 2
    24   13   17 1
    25   13   14 1
    26   14   15 1
    27   15   16 2
    28   15   18 1
    29   16   17 1
    30   16   41 1
    31   18   19 2
    32   18   42 1
    33   19   20 1
    34   19   21 1
    35   21   22 1
    36   21   43 1
    37   22   23 1
    38   22   44 1
    39   22   45 1
    40   23   24 1
    41   23   46 1
    42   23   47 1
    43   24   25 1
    44   24   26 1
    45   24   48 1
    46   25   49 1
    47   25   50 1
    48   25   51 1
    49   26   52 1
    50   26   53 1
    51   26   54 1
    52   27   55 1
    53   27   56 1
    54   27   57 1
    55   28   29 2
    56   28   30 1
    57   30   31 1
    58   31   32 1
    59   31   33 1
    60   31   58 1
    61   32   59 1
    62   32   60 1
    63   32   61 1
    64   33   62 1
    65   33   63 1
    66   33   64 1
@<TRIPOS>MOLECULE
ZINC35701983
   65    68     0     0     0
SMALL
USER_CHARGES

@<TRIPOS>ATOM
      1 C1         -0.0174    1.3394   -0.4203 C.3       1 <0>        -0.0918
      2 C2          0.0460   -0.1587   -0.2696 C.2       1 <0>         0.3014
      3 C3         -1.1234   -0.8903   -0.1895 C.2       1 <0>        -0.3928
      4 C4         -1.0075   -2.3908   -0.0393 C.3       1 <0>         0.2621
      5 H1         -1.5236   -2.6771    0.8771 H         1 <0>         0.0751
      6 N1          0.3647   -2.9619    0.0104 N.pl3     1 <0>        -0.5137
      7 C5          0.7065   -4.2931    0.1418 C.2       1 <0>         0.2317
      8 C6          2.0215   -4.6033    0.1652 C.2       1 <0>        -0.3033
      9 S1          2.7815   -3.0003    0.0002 S.3       1 <0>         0.1453
     10 C7          1.3910   -2.0642   -0.0856 C.2       1 <0>         0.3195
     11 N2          1.2209   -0.7650   -0.2203 N.2       1 <0>        -0.5957
     12 C8         -0.3235   -5.3360    0.2528 C.2       1 <0>        -0.4708
     13 C9          0.0312   -6.6067    0.5240 C.2       1 <0>         0.5032
     14 O1          1.3190   -6.9008    0.8271 O.3       1 <0>        -0.7020
     15 N3         -0.9199   -7.6126    0.4931 N.pl3     1 <0>        -0.6310
     16 C10        -2.3367   -7.2763    0.3324 C.3       1 <0>         0.1046
     17 C11        -0.5094   -9.0130    0.6212 C.3       1 <0>         0.1578
     18 C12        -0.8633   -9.7676   -0.6619 C.3       1 <0>        -0.1257
     19 C13        -0.4345  -11.2302   -0.5281 C.3       1 <0>        -0.1159
     20 C14        -1.1625  -11.8688    0.6564 C.3       1 <0>        -0.1174
     21 C15        -0.8086  -11.1142    1.9394 C.3       1 <0>        -0.1154
     22 C16        -1.2374   -9.6516    1.8057 C.3       1 <0>        -0.1276
     23 C17        -1.7337   -3.0301   -1.1947 C.ar      1 <0>        -0.0790
     24 C18        -1.1780   -3.0024   -2.4602 C.ar      1 <0>        -0.0652
     25 C19        -1.8428   -3.5887   -3.5205 C.ar      1 <0>        -0.1549
     26 C20        -3.0660   -4.2041   -3.3149 C.ar      1 <0>         0.0929
     27 C21        -3.6216   -4.2312   -2.0469 C.ar      1 <0>        -0.1545
     28 C22        -2.9525   -3.6488   -0.9872 C.ar      1 <0>        -0.0472
     29 F1         -3.7170   -4.7772   -4.3507 F         1 <0>        -0.1471
     30 C23        -2.3741   -0.2634   -0.2450 C.2       1 <0>         0.5362
     31 O2         -2.4441    0.9474   -0.3659 O.2       1 <0>        -0.5494
     32 O3         -3.5038   -1.0008   -0.1646 O.3       1 <0>        -0.3491
     33 C24        -4.7449   -0.2953   -0.2281 C.3       1 <0>         0.0827
     34 C25        -5.8111   -1.1947   -0.8566 C.3       1 <0>        -0.1466
     35 C26        -5.1795    0.1002    1.1846 C.3       1 <0>        -0.1677
     36 H2          0.9941    1.7425   -0.4714 H         1 <0>         0.0638
     37 H3         -0.5550    1.5902   -1.3347 H         1 <0>         0.0862
     38 H4         -0.5369    1.7691    0.4362 H         1 <0>         0.0863
     39 H5          2.4903   -5.5717    0.2601 H         1 <0>         0.2322
     40 H6         -1.3647   -5.0832    0.1169 H         1 <0>         0.0974
     41 H7         -2.5874   -7.2568   -0.7282 H         1 <0>         0.0332
     42 H8         -2.9474   -8.0255    0.8363 H         1 <0>         0.0490
     43 H9         -2.5295   -6.2966    0.7694 H         1 <0>         0.0607
     44 H10         0.5669   -9.0625    0.7867 H         1 <0>         0.0970
     45 H11        -1.9395   -9.7181   -0.8274 H         1 <0>         0.0548
     46 H12        -0.3446   -9.3126   -1.5058 H         1 <0>         0.0611
     47 H13        -0.6866  -11.7678   -1.4422 H         1 <0>         0.0571
     48 H14         0.6417  -11.2796   -0.3627 H         1 <0>         0.0624
     49 H15        -2.2388  -11.8193    0.4909 H         1 <0>         0.0578
     50 H16        -0.8571  -12.9108    0.7517 H         1 <0>         0.0568
     51 H17        -1.3273  -11.5691    2.7833 H         1 <0>         0.0570
     52 H18         0.2676  -11.1637    2.1049 H         1 <0>         0.0626
     53 H19        -0.9852   -9.1140    2.7198 H         1 <0>         0.0614
     54 H20        -2.3136   -9.6022    1.6402 H         1 <0>         0.0564
     55 H21        -0.2240   -2.5220   -2.6204 H         1 <0>         0.1147
     56 H22        -1.4086   -3.5666   -4.5091 H         1 <0>         0.1277
     57 H23        -4.5758   -4.7106   -1.8854 H         1 <0>         0.1296
     58 H24        -3.3836   -3.6737    0.0027 H         1 <0>         0.1282
     59 H25        -4.6223    0.6017   -0.8350 H         1 <0>         0.0771
     60 H26        -5.9337   -2.0918   -0.2496 H         1 <0>         0.0639
     61 H27        -6.7578   -0.6566   -0.9050 H         1 <0>         0.0692
     62 H28        -5.5015   -1.4765   -1.8630 H         1 <0>         0.0615
     63 H29        -5.3021   -0.7968    1.7916 H         1 <0>         0.0612
     64 H30        -4.4199    0.7409    1.6324 H         1 <0>         0.0596
     65 H31        -6.1262    0.6383    1.1362 H         1 <0>         0.0653
@<TRIPOS>BOND
     1    1    2 1
     2    1   36 1
     3    1   37 1
     4    1   38 1
     5    2   11 1
     6    2    3 2
     7    3    4 1
     8    3   30 1
     9    4    5 1
    10    4    6 1
    11    4   23 1
    12    6   10 1
    13    6    7 1
    14    7    8 2
    15    7   12 1
    16    8    9 1
    17    8   39 1
    18    9   10 1
    19   10   11 2
    20   12   13 2
    21   12   40 1
    22   13   14 1
    23   13   15 1
    24   15   16 1
    25   15   17 1
    26   16   41 1
    27   16   42 1
    28   16   43 1
    29   17   22 1
    30   17   18 1
    31   17   44 1
    32   18   19 1
    33   18   45 1
    34   18   46 1
    35   19   20 1
    36   19   47 1
    37   19   48 1
    38   20   21 1
    39   20   49 1
    40   20   50 1
    41   21   22 1
    42   21   51 1
    43   21   52 1
    44   22   53 1
    45   22   54 1
    46   23   28 ar
    47   23   24 ar
    48   24   25 ar
    49   24   55 1
    50   25   26 ar
    51   25   56 1
    52   26   27 ar
    53   26   29 1
    54   27   28 ar
    55   27   57 1
    56   28   58 1
    57   30   31 2
    58   30   32 1
    59   32   33 1
    60   33   34 1
    61   33   35 1
    62   33   59 1
    63   34   60 1
    64   34   61 1
    65   34   62 1
    66   35   63 1
    67   35   64 1
    68   35   65 1
@<TRIPOS>MOLECULE
ZINC36071764
   71    74     0     0     0
SMALL
USER_CHARGES

@<TRIPOS>ATOM
      1 C1         -0.4343    1.7384   -0.1284 C.3       1 <0>        -0.0910
      2 C2         -0.2970    0.2428   -0.0036 C.2       1 <0>         0.2989
      3 C3         -1.4266   -0.5528   -0.0092 C.2       1 <0>        -0.3897
      4 C4         -1.2367   -2.0478    0.1182 C.3       1 <0>         0.2600
      5 H1         -1.7898   -2.3828    0.9957 H         1 <0>         0.0719
      6 N1          0.1598   -2.5447    0.2400 N.pl3     1 <0>        -0.5124
      7 C5          0.5666   -3.8580    0.3657 C.2       1 <0>         0.2353
      8 C6          1.8930   -4.0969    0.4630 C.2       1 <0>        -0.3055
      9 S1          2.5712   -2.4516    0.3760 S.3       1 <0>         0.1410
     10 C7          1.1385   -1.5906    0.2243 C.2       1 <0>         0.3201
     11 N2          0.9048   -0.2998    0.1051 N.2       1 <0>        -0.5966
     12 C8         -0.4087   -4.9575    0.3933 C.2       1 <0>        -0.4697
     13 C9         -0.0013   -6.2125    0.6636 C.2       1 <0>         0.5041
     14 O1          1.2805   -6.4428    1.0388 O.3       1 <0>        -0.7031
     15 N3         -0.8920   -7.2674    0.5580 N.pl3     1 <0>        -0.7479
     16 C10        -0.4228   -8.6433    0.7399 C.3       1 <0>         0.1971
     17 H2          0.3192   -8.6716    1.5379 H         1 <0>         0.0858
     18 C11         0.2082   -9.1432   -0.5612 C.3       1 <0>        -0.1512
     19 C12        -1.5874   -9.5270    1.1054 C.ar      1 <0>        -0.0763
     20 C13        -2.8086   -9.3544    0.4811 C.ar      1 <0>        -0.1132
     21 C14        -3.8770  -10.1650    0.8163 C.ar      1 <0>        -0.1192
     22 C15        -3.7240  -11.1486    1.7755 C.ar      1 <0>        -0.1300
     23 C16        -2.5026  -11.3218    2.3992 C.ar      1 <0>        -0.1200
     24 C17        -1.4331  -10.5140    2.0609 C.ar      1 <0>        -0.1128
     25 C18        -1.8561   -2.6989   -1.0916 C.ar      1 <0>        -0.0707
     26 C19        -1.2270   -2.6151   -2.3197 C.ar      1 <0>        -0.0899
     27 C20        -1.7951   -3.2123   -3.4294 C.ar      1 <0>        -0.1208
     28 C21        -2.9921   -3.8937   -3.3110 C.ar      1 <0>        -0.0785
     29 C22        -3.6206   -3.9782   -2.0827 C.ar      1 <0>        -0.1175
     30 C23        -3.0503   -3.3847   -0.9721 C.ar      1 <0>        -0.0718
     31 C24        -3.6119   -4.5439   -4.5210 C.3       1 <0>        -0.0535
     32 C25        -3.7473   -6.0484   -4.2783 C.3       1 <0>        -0.1419
     33 C26        -4.9957   -3.9411   -4.7712 C.3       1 <0>        -0.1411
     34 C27        -2.7047    0.0064   -0.1284 C.2       1 <0>         0.5364
     35 O2         -2.8344    1.2140   -0.2294 O.2       1 <0>        -0.5512
     36 O3         -3.7944   -0.7928   -0.1313 O.3       1 <0>        -0.3461
     37 C28        -5.0668   -0.1545   -0.2562 C.3       1 <0>         0.0829
     38 C29        -6.0420   -1.0958   -0.9661 C.3       1 <0>        -0.1452
     39 C30        -5.6062    0.1843    1.1349 C.3       1 <0>        -0.1678
     40 H3          0.5544    2.1968   -0.1099 H         1 <0>         0.0632
     41 H4         -0.9296    1.9805   -1.0687 H         1 <0>         0.0855
     42 H5         -1.0271    2.1194    0.7031 H         1 <0>         0.0857
     43 H6          2.4084   -5.0403    0.5671 H         1 <0>         0.2320
     44 H7         -1.4520   -4.7590    0.1970 H         1 <0>         0.0916
     45 H8         -1.8266   -7.0954    0.3636 H         1 <0>         0.3834
     46 H9          1.0506   -8.5040   -0.8255 H         1 <0>         0.0679
     47 H10         0.5573  -10.1668   -0.4258 H         1 <0>         0.0504
     48 H11        -0.5338   -9.1149   -1.3591 H         1 <0>         0.0474
     49 H12        -2.9282   -8.5860   -0.2683 H         1 <0>         0.1206
     50 H13        -4.8313  -10.0297    0.3290 H         1 <0>         0.1187
     51 H14        -4.5589  -11.7815    2.0379 H         1 <0>         0.1171
     52 H15        -2.3831  -12.0901    3.1488 H         1 <0>         0.1191
     53 H16        -0.4777  -10.6518    2.5454 H         1 <0>         0.1223
     54 H17        -0.2919   -2.0828   -2.4123 H         1 <0>         0.1025
     55 H18        -1.3041   -3.1462   -4.3891 H         1 <0>         0.1116
     56 H19        -4.5559   -4.5103   -1.9902 H         1 <0>         0.1133
     57 H20        -3.5395   -3.4539   -0.0118 H         1 <0>         0.1159
     58 H21        -2.9779   -4.3717   -5.3908 H         1 <0>         0.0716
     59 H22        -4.3813   -6.2206   -3.4085 H         1 <0>         0.0558
     60 H23        -4.1956   -6.5187   -5.1535 H         1 <0>         0.0523
     61 H24        -2.7614   -6.4779   -4.1000 H         1 <0>         0.0568
     62 H25        -4.8993   -2.8692   -4.9441 H         1 <0>         0.0535
     63 H26        -5.4441   -4.4114   -5.6464 H         1 <0>         0.0528
     64 H27        -5.6297   -4.1132   -3.9014 H         1 <0>         0.0559
     65 H28        -4.9583    0.7615   -0.8369 H         1 <0>         0.0762
     66 H29        -6.1505   -2.0118   -0.3854 H         1 <0>         0.0632
     67 H30        -7.0126   -0.6089   -1.0614 H         1 <0>         0.0679
     68 H31        -5.6577   -1.3371   -1.9571 H         1 <0>         0.0620
     69 H32        -6.5767    0.6711    1.0396 H         1 <0>         0.0648
     70 H33        -5.7147   -0.7318    1.7155 H         1 <0>         0.0608
     71 H34        -4.9114    0.8548    1.6406 H         1 <0>         0.0594
@<TRIPOS>BOND
     1    1    2 1
     2    1   40 1
     3    1   41 1
     4    1   42 1
     5    2   11 1
     6    2    3 2
     7    3    4 1
     8    3   34 1
     9    4    5 1
    10    4    6 1
    11    4   25 1
    12    6   10 1
    13    6    7 1
    14    7    8 2
    15    7   12 1
    16    8    9 1
    17    8   43 1
    18    9   10 1
    19   10   11 2
    20   12   13 2
    21   12   44 1
    22   13   14 1
    23   13   15 1
    24   15   16 1
    25   15   45 1
    26   16   17 1
    27   16   18 1
    28   16   19 1
    29   18   46 1
    30   18   47 1
    31   18   48 1
    32   19   24 ar
    33   19   20 ar
    34   20   21 ar
    35   20   49 1
    36   21   22 ar
    37   21   50 1
    38   22   23 ar
    39   22   51 1
    40   23   24 ar
    41   23   52 1
    42   24   53 1
    43   25   30 ar
    44   25   26 ar
    45   26   27 ar
    46   26   54 1
    47   27   28 ar
    48   27   55 1
    49   28   29 ar
    50   28   31 1
    51   29   30 ar
    52   29   56 1
    53   30   57 1
    54   31   32 1
    55   31   33 1
    56   31   58 1
    57   32   59 1
    58   32   60 1
    59   32   61 1
    60   33   62 1
    61   33   63 1
    62   33   64 1
    63   34   35 2
    64   34   36 1
    65   36   37 1
    66   37   38 1
    67   37   39 1
    68   37   65 1
    69   38   66 1
    70   38   67 1
    71   38   68 1
    72   39   69 1
    73   39   70 1
    74   39   71 1
@<TRIPOS>MOLECULE
ZINC41105279
   66    69     0     0     0
SMALL
USER_CHARGES

@<TRIPOS>ATOM
      1 C1          1.1858   -0.0761    1.2654 C.3       1 <0>        -0.1366
      2 C2          0.1702   -0.0743    0.1211 C.3       1 <0>        -0.0272
      3 C3         -0.9879   -1.0129    0.4655 C.3       1 <0>        -0.1384
      4 C4         -0.3662    1.3441   -0.0825 C.3       1 <0>        -0.1419
      5 C5          0.8389   -0.5450   -1.1448 C.ar      1 <0>        -0.0769
      6 C6          0.8917    0.2893   -2.2472 C.ar      1 <0>        -0.1247
      7 C7          1.5025   -0.1359   -3.4090 C.ar      1 <0>        -0.0904
      8 C8          2.0680   -1.4097   -3.4705 C.ar      1 <0>        -0.0102
      9 C9          2.0119   -2.2459   -2.3553 C.ar      1 <0>        -0.0854
     10 C10         1.4025   -1.8074   -1.1977 C.ar      1 <0>        -0.1211
     11 C11         2.7247   -1.8724   -4.7145 C.2       1 <0>         0.1881
     12 C12         3.5625   -1.0248   -5.4308 C.2       1 <0>        -0.2575
     13 S1          4.0404   -2.0966   -6.7800 S.3       1 <0>        -0.0595
     14 C13         3.1028   -3.5309   -6.2723 C.2       1 <0>         0.4709
     15 N1          2.5298   -3.1014   -5.1624 N.2       1 <0>        -0.6375
     16 N2          3.0062   -4.7697   -6.8807 N.2       1 <0>        -1.0239
     17 S2          2.0606   -5.9511   -6.2080 S.o2      1 <0>         2.6392
     18 O1          2.6656   -6.3000   -4.9705 O.2       1 <0>        -1.0047
     19 O2          0.7173   -5.4962   -6.2977 O.2       1 <0>        -1.0038
     20 C14         2.1823   -7.3698   -7.2458 C.ar      1 <0>        -0.6271
     21 C15         1.2971   -7.5371   -8.2943 C.ar      1 <0>        -0.0226
     22 C16         1.3926   -8.6502   -9.1085 C.ar      1 <0>        -0.1466
     23 C17         2.3735   -9.5956   -8.8745 C.ar      1 <0>        -0.0803
     24 C18         3.2593   -9.4278   -7.8265 C.ar      1 <0>        -0.1467
     25 C19         3.1665   -8.3126   -7.0150 C.ar      1 <0>        -0.0227
     26 C20         3.9496    0.3720   -5.1545 C.ar      1 <0>         0.0497
     27 C21         4.3854    0.7403   -3.8792 C.ar      1 <0>        -0.1004
     28 C22         4.7461    2.0477   -3.6283 C.ar      1 <0>        -0.1100
     29 C23         4.6767    2.9937   -4.6359 C.ar      1 <0>        -0.0879
     30 C24         4.2455    2.6361   -5.9013 C.ar      1 <0>        -0.1180
     31 C25         3.8876    1.3312   -6.1684 C.ar      1 <0>        -0.1161
     32 C26         5.0720    4.4202   -4.3537 C.3       1 <0>        -0.0262
     33 C27         6.5331    4.4647   -3.9020 C.3       1 <0>        -0.1375
     34 C28         4.9053    5.2565   -5.6241 C.3       1 <0>        -0.1429
     35 C29         4.1790    4.9879   -3.2486 C.3       1 <0>        -0.1368
     36 H1          1.5679   -1.0865    1.4105 H         1 <0>         0.0566
     37 H2          2.0108    0.5926    1.0200 H         1 <0>         0.0556
     38 H3          0.7021    0.2644    2.1810 H         1 <0>         0.0535
     39 H4         -1.4715   -0.6725    1.3810 H         1 <0>         0.0538
     40 H5         -1.7114   -1.0117   -0.3498 H         1 <0>         0.0562
     41 H6         -0.6057   -2.0234    0.6105 H         1 <0>         0.0572
     42 H7          0.4589    2.0128   -0.3279 H         1 <0>         0.0583
     43 H8         -1.0897    1.3454   -0.8978 H         1 <0>         0.0580
     44 H9         -0.8498    1.6845    0.8330 H         1 <0>         0.0533
     45 H10         0.4536    1.2752   -2.1984 H         1 <0>         0.1218
     46 H11         1.5425    0.5160   -4.2692 H         1 <0>         0.1203
     47 H12         2.4476   -3.2333   -2.3969 H         1 <0>         0.1253
     48 H13         1.3621   -2.4523   -0.3324 H         1 <0>         0.1168
     49 H14         0.5307   -6.7985   -8.4771 H         1 <0>         0.1371
     50 H15         0.7006   -8.7812   -9.9273 H         1 <0>         0.1274
     51 H16         2.4477  -10.4656   -9.5102 H         1 <0>         0.1245
     52 H17         4.0254  -10.1667   -7.6435 H         1 <0>         0.1274
     53 H18         3.8608   -8.1797   -6.1985 H         1 <0>         0.1372
     54 H19         4.4394    0.0032   -3.0917 H         1 <0>         0.1181
     55 H20         5.0832    2.3339   -2.6430 H         1 <0>         0.1149
     56 H21         4.1932    3.3798   -6.6828 H         1 <0>         0.1210
     57 H22         3.5556    1.0525   -7.1576 H         1 <0>         0.1195
     58 H23         7.1693    4.0603   -4.6893 H         1 <0>         0.0555
     59 H24         6.8191    5.4965   -3.6979 H         1 <0>         0.0533
     60 H25         6.6519    3.8689   -2.9970 H         1 <0>         0.0562
     61 H26         3.8644    5.2248   -5.9459 H         1 <0>         0.0581
     62 H27         5.1913    6.2883   -5.4199 H         1 <0>         0.0532
     63 H28         5.5415    4.8521   -6.4114 H         1 <0>         0.0580
     64 H29         4.2978    4.3921   -2.3436 H         1 <0>         0.0564
     65 H30         4.4650    6.0197   -3.0445 H         1 <0>         0.0530
     66 H31         3.1381    4.9562   -3.5705 H         1 <0>         0.0558
@<TRIPOS>BOND
     1    1    2 1
     2    1   36 1
     3    1   37 1
     4    1   38 1
     5    2    3 1
     6    2    4 1
     7    2    5 1
     8    3   39 1
     9    3   40 1
    10    3   41 1
    11    4   42 1
    12    4   43 1
    13    4   44 1
    14    5   10 ar
    15    5    6 ar
    16    6    7 ar
    17    6   45 1
    18    7    8 ar
    19    7   46 1
    20    8    9 ar
    21    8   11 1
    22    9   10 ar
    23    9   47 1
    24   10   48 1
    25   11   15 1
    26   11   12 2
    27   12   13 1
    28   12   26 1
    29   13   14 1
    30   14   15 2
    31   14   16 1
    32   16   17 1
    33   17   18 2
    34   17   19 2
    35   17   20 1
    36   20   25 ar
    37   20   21 ar
    38   21   22 ar
    39   21   49 1
    40   22   23 ar
    41   22   50 1
    42   23   24 ar
    43   23   51 1
    44   24   25 ar
    45   24   52 1
    46   25   53 1
    47   26   31 ar
    48   26   27 ar
    49   27   28 ar
    50   27   54 1
    51   28   29 ar
    52   28   55 1
    53   29   30 ar
    54   29   32 1
    55   30   31 ar
    56   30   56 1
    57   31   57 1
    58   32   33 1
    59   32   34 1
    60   32   35 1
    61   33   58 1
    62   33   59 1
    63   33   60 1
    64   34   61 1
    65   34   62 1
    66   34   63 1
    67   35   64 1
    68   35   65 1
    69   35   66 1
@<TRIPOS>MOLECULE
ZINC59417588
   63    66     0     0     0
SMALL
USER_CHARGES

@<TRIPOS>ATOM
      1 C1         -0.0184    1.5028    0.0103 C.3       1 <0>        -0.1167
      2 C2          0.0021   -0.0041    0.0020 C.ar      1 <0>        -0.0509
      3 C3          0.0057   -0.6887   -1.1989 C.ar      1 <0>        -0.1474
      4 C4          0.0245   -2.0709   -1.2065 C.ar      1 <0>        -0.0194
      5 C5          0.0400   -2.7685   -0.0132 C.ar      1 <0>        -0.6224
      6 C6          0.0373   -2.0839    1.1877 C.ar      1 <0>        -0.0195
      7 C7          0.0229   -0.7016    1.1953 C.ar      1 <0>        -0.1473
      8 S1          0.0628   -4.5303   -0.0229 S.o2      1 <0>         2.6067
      9 O1         -0.4759   -4.9503    1.2232 O.2       1 <0>        -1.0234
     10 O2         -0.4897   -4.9367   -1.2674 O.2       1 <0>        -1.0235
     11 N1          1.6509   -4.9994   -0.0343 N.2       1 <0>        -1.0717
     12 C8          1.9786   -6.3601   -0.0435 C.ar      1 <0>         0.3193
     13 C9          0.9759   -7.3270   -0.0489 C.ar      1 <0>        -0.2416
     14 C10         1.2734   -8.6644   -0.0575 C.ar      1 <0>         0.0067
     15 C11         2.6159   -9.1081   -0.0615 C.ar      1 <0>        -0.0416
     16 C12         3.6082   -8.1023   -0.0562 C.ar      1 <0>        -0.0604
     17 C13         3.3076   -6.7633   -0.0530 C.ar      1 <0>        -0.1498
     18 S2          5.1103   -9.0512   -0.0641 S.3       1 <0>        -0.0162
     19 C14         4.3540  -10.6704   -0.0736 C.2       1 <0>         0.0534
     20 N2          3.0727  -10.3814   -0.0702 N.2       1 <0>        -0.4614
     21 S3          5.1299  -12.2523   -0.0852 S.3       1 <0>         0.0046
     22 C15         3.7429  -13.4214   -0.0907 C.3       1 <0>        -0.0670
     23 C16         4.2745  -14.8315   -0.1008 C.ar      1 <0>        -0.0836
     24 C17         4.5218  -15.4683   -1.3025 C.ar      1 <0>        -0.0552
     25 C18         5.0094  -16.7618   -1.3118 C.ar      1 <0>        -0.1240
     26 C19         5.2501  -17.4182   -0.1193 C.ar      1 <0>        -0.0568
     27 C20         5.0037  -16.7811    1.0825 C.ar      1 <0>        -0.1297
     28 C21         4.5201  -15.4861    1.0917 C.ar      1 <0>        -0.0548
     29 C22         4.2564  -14.7896    2.4018 C.3       1 <0>        -0.1255
     30 C23         5.7808  -18.8287   -0.1294 C.3       1 <0>        -0.0296
     31 C24         7.1312  -18.8604   -0.8479 C.3       1 <0>        -0.1385
     32 C25         5.9572  -19.3175    1.3097 C.3       1 <0>        -0.1444
     33 C26         4.7927  -19.7401   -0.8601 C.3       1 <0>        -0.1382
     34 C27         4.2594  -14.7527   -2.6025 C.3       1 <0>        -0.1227
     35 H1          1.0042    1.8801    0.0026 H         1 <0>         0.0736
     36 H2         -0.5455    1.8639   -0.8728 H         1 <0>         0.0675
     37 H3         -0.5286    1.8543    0.9071 H         1 <0>         0.0674
     38 H4         -0.0064   -0.1436   -2.1312 H         1 <0>         0.1262
     39 H5          0.0266   -2.6057   -2.1448 H         1 <0>         0.1368
     40 H6          0.0491   -2.6289    2.1200 H         1 <0>         0.1368
     41 H7          0.0245   -0.1667    2.1335 H         1 <0>         0.1262
     42 H8         -0.0583   -7.0158   -0.0460 H         1 <0>         0.1121
     43 H9          0.4724   -9.3888   -0.0608 H         1 <0>         0.1180
     44 H10         4.0989   -6.0282   -0.0538 H         1 <0>         0.1279
     45 H11         3.1353  -13.2685    0.8012 H         1 <0>         0.1010
     46 H12         3.1326  -13.2568   -0.9787 H         1 <0>         0.1031
     47 H13         5.2020  -17.2596   -2.2507 H         1 <0>         0.1209
     48 H14         5.1915  -17.2940    2.0141 H         1 <0>         0.1267
     49 H15         3.2312  -14.9841    2.7168 H         1 <0>         0.0718
     50 H16         4.9461  -15.1645    3.1580 H         1 <0>         0.0683
     51 H17         4.4010  -13.7163    2.2783 H         1 <0>         0.0767
     52 H18         7.8351  -18.2111   -0.3273 H         1 <0>         0.0571
     53 H19         7.5150  -19.8806   -0.8552 H         1 <0>         0.0570
     54 H20         7.0055  -18.5121   -1.8731 H         1 <0>         0.0573
     55 H21         4.9951  -19.2949    1.8216 H         1 <0>         0.0586
     56 H22         6.3410  -20.3377    1.3024 H         1 <0>         0.0567
     57 H23         6.6611  -18.6682    1.8303 H         1 <0>         0.0593
     58 H24         4.6671  -19.3918   -1.8853 H         1 <0>         0.0571
     59 H25         5.1765  -20.7603   -0.8674 H         1 <0>         0.0571
     60 H26         3.8307  -19.7175   -0.3482 H         1 <0>         0.0562
     61 H27         5.1576  -14.2174   -2.9104 H         1 <0>         0.0785
     62 H28         3.9887  -15.4790   -3.3689 H         1 <0>         0.0656
     63 H29         3.4420  -14.0441   -2.4686 H         1 <0>         0.0710
@<TRIPOS>BOND
     1    1    2 1
     2    1   35 1
     3    1   36 1
     4    1   37 1
     5    2    7 ar
     6    2    3 ar
     7    3    4 ar
     8    3   38 1
     9    4    5 ar
    10    4   39 1
    11    5    6 ar
    12    5    8 1
    13    6    7 ar
    14    6   40 1
    15    7   41 1
    16    8    9 2
    17    8   10 2
    18    8   11 1
    19   11   12 1
    20   12   17 ar
    21   12   13 ar
    22   13   14 ar
    23   13   42 1
    24   14   15 ar
    25   14   43 1
    26   15   20 1
    27   15   16 ar
    28   16   17 ar
    29   16   18 1
    30   17   44 1
    31   18   19 1
    32   19   20 2
    33   19   21 1
    34   21   22 1
    35   22   23 1
    36   22   45 1
    37   22   46 1
    38   23   28 ar
    39   23   24 ar
    40   24   25 ar
    41   24   34 1
    42   25   26 ar
    43   25   47 1
    44   26   27 ar
    45   26   30 1
    46   27   28 ar
    47   27   48 1
    48   28   29 1
    49   29   49 1
    50   29   50 1
    51   29   51 1
    52   30   31 1
    53   30   32 1
    54   30   33 1
    55   31   52 1
    56   31   53 1
    57   31   54 1
    58   32   55 1
    59   32   56 1
    60   32   57 1
    61   33   58 1
    62   33   59 1
    63   33   60 1
    64   34   61 1
    65   34   62 1
    66   34   63 1
@<TRIPOS>MOLECULE
ZINC13363358
   51    53     0     0     0
SMALL
USER_CHARGES
4-[(6-ethyl-3-isopentyl-4-oxo-thieno[2,3-d]pyrimidin-2-yl)sulfanylmethyl]benzoic acid
@<TRIPOS>ATOM
      1 C1         -0.7106   -4.6539    1.4259 C.3       1 <0>        -0.1506
      2 C2         -0.5894   -4.1539   -0.0151 C.3       1 <0>        -0.0358
      3 C3         -0.1900   -2.7008   -0.0106 C.2       1 <0>        -0.1630
      4 C4          1.0453   -2.1786   -0.0196 C.2       1 <0>        -0.0822
      5 C5          1.2053   -0.7347   -0.0134 C.2       1 <0>        -0.2666
      6 C6          0.0021   -0.0041    0.0020 C.2       1 <0>         0.1300
      7 S1         -1.2465   -1.2650    0.0072 S.3       1 <0>         0.1317
      8 N1         -0.0159    1.3232    0.0093 N.2       1 <0>        -0.5037
      9 C7          1.1055    2.0150    0.0023 C.2       1 <0>         0.3748
     10 N2          2.3166    1.3860   -0.0134 N.am      1 <0>        -0.5102
     11 C8          2.4058    0.0433   -0.0211 C.2       1 <0>         0.5610
     12 O1          3.4955   -0.5031   -0.0349 O.2       1 <0>        -0.5253
     13 C9          3.5427    2.1877   -0.0213 C.3       1 <0>         0.0828
     14 C10         3.9556    2.4741   -1.4664 C.3       1 <0>        -0.1299
     15 C11         5.2361    3.3114   -1.4747 C.3       1 <0>        -0.0901
     16 C12         5.7177    3.4926   -2.9155 C.3       1 <0>        -0.1468
     17 C13         4.9535    4.6816   -0.8553 C.3       1 <0>        -0.1552
     18 S2          1.0406    3.7757    0.0124 S.3       1 <0>         0.0348
     19 C14        -0.7522    4.0241    0.0309 C.3       1 <0>        -0.0558
     20 C15        -1.0548    5.5004    0.0417 C.ar      1 <0>        -0.1046
     21 C16        -1.1872    6.1674    1.2467 C.ar      1 <0>        -0.1141
     22 C17        -1.4593    7.5196    1.2638 C.ar      1 <0>        -0.0789
     23 C18        -1.6116    8.2131    0.0616 C.ar      1 <0>        -0.0964
     24 C19        -1.4819    7.5327   -1.1508 C.ar      1 <0>        -0.0879
     25 C20        -1.2045    6.1814   -1.1534 C.ar      1 <0>        -0.1129
     26 C21        -1.9082    9.6603    0.0722 C.2       1 <0>         0.4860
     27 O2         -2.0398   10.2610   -0.9754 O.co2     1 <0>        -0.6282
     28 H1          0.2487   -4.5423    1.9311 H         1 <0>         0.0589
     29 H2         -1.4675   -4.0706    1.9504 H         1 <0>         0.0589
     30 H3         -0.9996   -5.7049    1.4227 H         1 <0>         0.0639
     31 H4         -1.5488   -4.2654   -0.5203 H         1 <0>         0.0810
     32 H5          0.1674   -4.7371   -0.5396 H         1 <0>         0.0877
     33 H6          1.9111   -2.8241   -0.0317 H         1 <0>         0.1397
     34 H7          3.3648    3.1288    0.4991 H         1 <0>         0.1035
     35 H8          4.3388    1.6390    0.4820 H         1 <0>         0.1071
     36 H9          4.1335    1.5330   -1.9868 H         1 <0>         0.0712
     37 H10         3.1595    3.0227   -1.9698 H         1 <0>         0.0757
     38 H11         6.0066    2.8027   -0.8953 H         1 <0>         0.0731
     39 H12         4.9473    4.0013   -3.4949 H         1 <0>         0.0573
     40 H13         6.6300    4.0891   -2.9214 H         1 <0>         0.0578
     41 H14         5.9191    2.5164   -3.3568 H         1 <0>         0.0533
     42 H15         4.6104    4.5525    0.1712 H         1 <0>         0.0563
     43 H16         5.8658    5.2781   -0.8611 H         1 <0>         0.0582
     44 H17         4.1830    5.1903   -1.4347 H         1 <0>         0.0622
     45 H18        -1.1911    3.5698   -0.8574 H         1 <0>         0.1086
     46 H19        -1.1741    3.5602    0.9224 H         1 <0>         0.1085
     47 H20        -1.0732    5.6289    2.1759 H         1 <0>         0.1201
     48 H21        -1.5580    8.0400    2.2051 H         1 <0>         0.1345
     49 H22        -1.5982    8.0632   -2.0843 H         1 <0>         0.1306
     50 H23        -1.1035    5.6540   -2.0905 H         1 <0>         0.1198
     51 O3         -2.0327   10.3137    1.2436 O.co2     1 <0>        -0.7508
@<TRIPOS>BOND
     1    1    2 1
     2    1   28 1
     3    1   29 1
     4    1   30 1
     5    2    3 1
     6    2   31 1
     7    2   32 1
     8    3    7 1
     9    3    4 2
    10    4    5 1
    11    4   33 1
    12    5   11 1
    13    5    6 2
    14    6    7 1
    15    6    8 1
    16    8    9 2
    17    9   10 1
    18    9   18 1
    19   10   11 am
    20   10   13 1
    21   11   12 2
    22   13   14 1
    23   13   34 1
    24   13   35 1
    25   14   15 1
    26   14   36 1
    27   14   37 1
    28   15   16 1
    29   15   17 1
    30   15   38 1
    31   16   39 1
    32   16   40 1
    33   16   41 1
    34   17   42 1
    35   17   43 1
    36   17   44 1
    37   18   19 1
    38   19   20 1
    39   19   45 1
    40   19   46 1
    41   20   25 ar
    42   20   21 ar
    43   21   22 ar
    44   21   47 1
    45   22   23 ar
    46   22   48 1
    47   23   24 ar
    48   23   26 1
    49   24   25 ar
    50   24   49 1
    51   25   50 1
    52   26   27 2
    53   26   51 1
@<TRIPOS>MOLECULE
ZINC33467438
   61    62     0     0     0
SMALL
USER_CHARGES
5-ethyl-3-[(2S)-6-methoxy-2,6-dimethyl-heptyl]-1-[2-(trifluoromethyl)phenyl]pyrazole-4-carboxylic acid
@<TRIPOS>ATOM
      1 C1          1.6779   -1.8309   -2.2921 C.3       1 <0>        -0.1444
      2 C2          1.6775   -1.7522   -0.7641 C.3       1 <0>        -0.0581
      3 C3          1.2458   -0.3745   -0.3322 C.2       1 <0>         0.0861
      4 C4          2.0776    0.6862   -0.0298 C.2       1 <0>        -0.2065
      5 C5          1.2506    1.7767    0.3251 C.2       1 <0>         0.1146
      6 N1          0.0085    1.3872    0.2387 N.2       1 <0>        -0.2916
      7 N2         -0.0204    0.0490   -0.1695 N.pl3     1 <0>        -0.3542
      8 C6         -1.1740   -0.7200   -0.3743 C.ar      1 <0>         0.2256
      9 C7         -1.3499   -1.9093    0.3208 C.ar      1 <0>        -0.1256
     10 C8         -2.4878   -2.6646    0.1172 C.ar      1 <0>        -0.0724
     11 C9         -3.4519   -2.2378   -0.7779 C.ar      1 <0>        -0.1275
     12 C10        -3.2795   -1.0545   -1.4718 C.ar      1 <0>        -0.0631
     13 C11        -2.1459   -0.2916   -1.2682 C.ar      1 <0>        -0.1811
     14 C12        -1.9619    1.0015   -2.0200 C.3       1 <0>         0.5071
     15 F1         -3.0647    1.2175   -2.8533 F         1 <0>        -0.1856
     16 F2         -1.8509    2.0582   -1.1100 F         1 <0>        -0.1525
     17 F3         -0.7992    0.9291   -2.7947 F         1 <0>        -0.1716
     18 C13         1.7216    3.1493    0.7315 C.3       1 <0>        -0.0326
     19 C14         1.9175    3.1930    2.2483 C.3       1 <0>        -0.0798
     20 H1          0.9875    2.8829    2.7472 H         1 <0>         0.0616
     21 C15         3.0497    2.2430    2.6439 C.3       1 <0>        -0.1438
     22 C16         2.2747    4.6180    2.6756 C.3       1 <0>        -0.1123
     23 C17         2.3482    4.6894    4.2021 C.3       1 <0>        -0.1189
     24 C18         2.7054    6.1144    4.6294 C.3       1 <0>        -0.1047
     25 C19         2.7789    6.1859    6.1560 C.3       1 <0>         0.1101
     26 C20         3.0127    7.6348    6.5881 C.3       1 <0>        -0.1793
     27 C21         1.4642    5.6811    6.7540 C.3       1 <0>        -0.1825
     28 O1          3.8572    5.3707    6.6196 O.3       1 <0>        -0.3724
     29 C22         4.0140    5.3670    8.0400 C.3       1 <0>         0.0224
     30 C23         3.5497    0.6818   -0.0693 C.2       1 <0>         0.5288
     31 O2          4.1311    0.9873   -1.0918 O.co2     1 <0>        -0.6326
     32 O3          4.2522    0.3391    1.0285 O.co2     1 <0>        -0.7425
     33 H2          1.9930   -2.8365   -2.6074 H         1 <0>         0.0597
     34 H3          2.3762   -1.0839   -2.6975 H         1 <0>         0.0693
     35 H4          0.6648   -1.6288   -2.6699 H         1 <0>         0.0463
     36 H5          0.9792   -2.4992   -0.3587 H         1 <0>         0.0676
     37 H6          2.6906   -1.9543   -0.3863 H         1 <0>         0.0969
     38 H7         -0.5972   -2.2433    1.0196 H         1 <0>         0.1415
     39 H8         -2.6253   -3.5895    0.6577 H         1 <0>         0.1395
     40 H9         -4.3410   -2.8303   -0.9355 H         1 <0>         0.1379
     41 H10        -4.0339   -0.7239   -2.1704 H         1 <0>         0.1429
     42 H11         2.6759    3.3723    0.2320 H         1 <0>         0.0854
     43 H12         0.9703    3.8969    0.4371 H         1 <0>         0.0711
     44 H13         3.1905    2.2744    3.7344 H         1 <0>         0.0366
     45 H14         3.9797    2.5531    2.1450 H         1 <0>         0.0586
     46 H15         2.7928    1.2185    2.3367 H         1 <0>         0.0836
     47 H16         3.2496    4.8955    2.2482 H         1 <0>         0.0635
     48 H17         1.5038    5.3138    2.3127 H         1 <0>         0.0548
     49 H18         1.3733    4.4119    4.6295 H         1 <0>         0.0594
     50 H19         3.1191    3.9937    4.5650 H         1 <0>         0.0765
     51 H20         3.6803    6.3918    4.2020 H         1 <0>         0.0707
     52 H21         1.9346    6.8102    4.2665 H         1 <0>         0.0724
     53 H22         3.0655    7.6861    7.6856 H         1 <0>         0.0569
     54 H23         2.1827    8.2623    6.2312 H         1 <0>         0.0656
     55 H24         3.9579    7.9977    6.1581 H         1 <0>         0.0640
     56 H25         1.5170    5.7325    7.8515 H         1 <0>         0.0548
     57 H26         1.2962    4.6393    6.4433 H         1 <0>         0.0723
     58 H27         0.6342    6.3086    6.3970 H         1 <0>         0.0653
     59 H28         4.8602    4.7197    8.3138 H         1 <0>         0.0838
     60 H29         3.0946    4.9869    8.5094 H         1 <0>         0.0420
     61 H30         4.2079    6.3916    8.3901 H         1 <0>         0.0403
@<TRIPOS>BOND
     1    1    2 1
     2    1   33 1
     3    1   34 1
     4    1   35 1
     5    2    3 1
     6    2   36 1
     7    2   37 1
     8    3    7 1
     9    3    4 2
    10    4    5 1
    11    4   30 1
    12    5    6 2
    13    5   18 1
    14    6    7 1
    15    7    8 1
    16    8   13 ar
    17    8    9 ar
    18    9   10 ar
    19    9   38 1
    20   10   11 ar
    21   10   39 1
    22   11   12 ar
    23   11   40 1
    24   12   13 ar
    25   12   41 1
    26   13   14 1
    27   14   15 1
    28   14   16 1
    29   14   17 1
    30   18   19 1
    31   18   42 1
    32   18   43 1
    33   19   20 1
    34   19   21 1
    35   19   22 1
    36   21   44 1
    37   21   45 1
    38   21   46 1
    39   22   23 1
    40   22   47 1
    41   22   48 1
    42   23   24 1
    43   23   49 1
    44   23   50 1
    45   24   25 1
    46   24   51 1
    47   24   52 1
    48   25   26 1
    49   25   27 1
    50   25   28 1
    51   26   53 1
    52   26   54 1
    53   26   55 1
    54   27   56 1
    55   27   57 1
    56   27   58 1
    57   28   29 1
    58   29   59 1
    59   29   60 1
    60   29   61 1
    61   30   31 2
    62   30   32 1
@<TRIPOS>MOLECULE
ZINC40026440
   50    52     0     0     0
SMALL
USER_CHARGES

@<TRIPOS>ATOM
      1 C1         -2.8713    1.7147    5.5432 C.3       1 <0>        -0.1499
      2 C2         -2.9153    0.1874    5.6225 C.3       1 <0>        -0.1233
      3 C3         -1.4899   -0.3669    5.5790 C.3       1 <0>         0.0569
      4 O1         -1.5311   -1.7934    5.6531 O.3       1 <0>        -0.3161
      5 C4         -0.3418   -2.4462    5.6265 C.ar      1 <0>         0.1421
      6 C5          0.8433   -1.7245    5.5365 C.ar      1 <0>        -0.2238
      7 C6          2.0520   -2.3829    5.5092 C.ar      1 <0>        -0.0327
      8 C7          2.0868   -3.7793    5.5726 C.ar      1 <0>        -0.1741
      9 C8          0.8927   -4.5011    5.6634 C.ar      1 <0>        -0.0275
     10 C9         -0.3114   -3.8347    5.6950 C.ar      1 <0>        -0.1674
     11 C10         3.3805   -4.4894    5.5431 C.2       1 <0>         0.5080
     12 O2          4.4142   -3.8649    5.3930 O.2       1 <0>        -0.4761
     13 C11         3.4202   -5.9474    5.6946 C.2       1 <0>        -0.5030
     14 C12         3.9449   -6.6368    6.7342 C.2       1 <0>         0.2644
     15 C13         3.7781   -8.0849    6.4902 C.2       1 <0>         0.5121
     16 O3          4.1469   -8.9656    7.2415 O.2       1 <0>        -0.5328
     17 N1          3.1574   -8.2838    5.3132 N.am      1 <0>        -0.6103
     18 C14         2.8773   -6.9694    4.7233 C.3       1 <0>         0.2642
     19 H1          1.8031   -6.8336    4.5978 H         1 <0>         0.0736
     20 C15         3.5751   -6.8424    3.3936 C.ar      1 <0>        -0.0618
     21 C16         4.8033   -7.4463    3.1972 C.ar      1 <0>        -0.0811
     22 C17         5.4438   -7.3301    1.9779 C.ar      1 <0>        -0.1140
     23 C18         4.8567   -6.6101    0.9542 C.ar      1 <0>        -0.1018
     24 C19         3.6279   -6.0062    1.1502 C.ar      1 <0>        -0.0866
     25 C20         2.9848   -6.1272    2.3691 C.ar      1 <0>        -0.0858
     26 Br1         2.8246   -5.0206   -0.2495 Br        1 <0>        -0.0650
     27 C21         2.8159   -9.5823    4.7272 C.3       1 <0>         0.1593
     28 C22         1.4397   -9.9931    5.1837 C.2       1 <0>        -0.1609
     29 C23         0.5186  -10.2910    4.3012 C.2       1 <0>        -0.1877
     30 O4          4.5293   -6.0876    7.8239 O.3       1 <0>        -0.6528
     31 H2         -2.3923    2.0165    4.6117 H         1 <0>         0.0574
     32 H3         -3.8868    2.1096    5.5741 H         1 <0>         0.0629
     33 H4         -2.3034    2.1061    6.3872 H         1 <0>         0.0576
     34 H5         -3.3943   -0.1144    6.5539 H         1 <0>         0.0728
     35 H6         -3.4833   -0.2040    4.7785 H         1 <0>         0.0726
     36 H7         -1.0110   -0.0651    4.6476 H         1 <0>         0.0620
     37 H8         -0.9220    0.0245    6.4231 H         1 <0>         0.0622
     38 H9          0.8156   -0.6460    5.4876 H         1 <0>         0.1261
     39 H10         2.9720   -1.8216    5.4386 H         1 <0>         0.1318
     40 H11         0.9153   -5.5797    5.7126 H         1 <0>         0.1401
     41 H12        -1.2340   -4.3912    5.7693 H         1 <0>         0.1306
     42 H13         5.2624   -8.0086    3.9968 H         1 <0>         0.1245
     43 H14         6.4033   -7.8017    1.8249 H         1 <0>         0.1274
     44 H15         5.3575   -6.5188    0.0018 H         1 <0>         0.1265
     45 H16         2.0235   -5.6590    2.5213 H         1 <0>         0.1293
     46 H17         2.8301   -9.5053    3.6400 H         1 <0>         0.0798
     47 H18         3.5430  -10.3283    5.0481 H         1 <0>         0.0873
     48 H19         1.2129  -10.0419    6.2385 H         1 <0>         0.1104
     49 H20         0.7454  -10.2422    3.2464 H         1 <0>         0.0959
     50 H21        -0.4676  -10.5855    4.6284 H         1 <0>         0.0968
@<TRIPOS>BOND
     1    1    2 1
     2    1   31 1
     3    1   32 1
     4    1   33 1
     5    2    3 1
     6    2   34 1
     7    2   35 1
     8    3    4 1
     9    3   36 1
    10    3   37 1
    11    4    5 1
    12    5   10 ar
    13    5    6 ar
    14    6    7 ar
    15    6   38 1
    16    7    8 ar
    17    7   39 1
    18    8    9 ar
    19    8   11 1
    20    9   10 ar
    21    9   40 1
    22   10   41 1
    23   11   12 2
    24   11   13 1
    25   13   18 1
    26   13   14 2
    27   14   15 1
    28   14   30 1
    29   15   16 2
    30   15   17 am
    31   17   18 1
    32   17   27 1
    33   18   19 1
    34   18   20 1
    35   20   25 ar
    36   20   21 ar
    37   21   22 ar
    38   21   42 1
    39   22   23 ar
    40   22   43 1
    41   23   24 ar
    42   23   44 1
    43   24   25 ar
    44   24   26 1
    45   25   45 1
    46   27   28 1
    47   27   46 1
    48   27   47 1
    49   28   29 2
    50   28   48 1
    51   29   49 1
    52   29   50 1
@<TRIPOS>MOLECULE
ZINC40081028
   64    66     0     0     0
SMALL
USER_CHARGES

@<TRIPOS>ATOM
      1 C1         -0.1114    1.8008    0.5419 C.3       1 <0>        -0.1493
      2 C2         -0.1072    0.3112    0.8915 C.3       1 <0>        -0.1191
      3 C3         -1.4580   -0.3037    0.5196 C.3       1 <0>        -0.1442
      4 C4         -1.4538   -1.7932    0.8692 C.3       1 <0>         0.1387
      5 N1         -2.7471   -2.3821    0.5131 N.am      1 <0>        -0.6118
      6 C5         -3.9248   -2.4709    1.3843 C.3       1 <0>         0.2619
      7 H1         -3.6922   -3.0624    2.2698 H         1 <0>         0.0685
      8 C6         -4.9996   -3.1538    0.5712 C.2       1 <0>        -0.5015
      9 C7         -4.4624   -3.4187   -0.6423 C.2       1 <0>         0.2617
     10 C8         -3.0672   -2.9319   -0.6724 C.2       1 <0>         0.5105
     11 O1         -2.3190   -3.0180   -1.6258 O.2       1 <0>        -0.5372
     12 O2         -5.1023   -4.0282   -1.6668 O.3       1 <0>        -0.6563
     13 C9         -6.3623   -3.4689    1.0119 C.2       1 <0>         0.5076
     14 O3         -7.3135   -2.9190    0.4887 O.2       1 <0>        -0.4784
     15 C10        -6.5802   -4.4531    2.0902 C.ar      1 <0>        -0.1727
     16 C11        -5.4918   -5.1195    2.6616 C.ar      1 <0>        -0.0254
     17 C12        -5.6994   -6.0367    3.6669 C.ar      1 <0>        -0.1683
     18 C13        -6.9892   -6.3007    4.1144 C.ar      1 <0>         0.1414
     19 C14        -8.0743   -5.6401    3.5490 C.ar      1 <0>        -0.2248
     20 C15        -7.8750   -4.7173    2.5471 C.ar      1 <0>        -0.0340
     21 O4         -7.1895   -7.2058    5.1054 O.3       1 <0>        -0.3133
     22 C16        -8.5396   -7.4289    5.5170 C.3       1 <0>         0.0618
     23 C17        -8.5661   -8.4736    6.6345 C.3       1 <0>        -0.0946
     24 C18        -9.9951   -8.6216    7.1606 C.3       1 <0>        -0.1463
     25 C19        -8.0823   -9.8181    6.0873 C.3       1 <0>        -0.1476
     26 C20        -4.3764   -1.0909    1.7874 C.ar      1 <0>        -0.0733
     27 C21        -4.5303   -0.1066    0.8292 C.ar      1 <0>        -0.0773
     28 C22        -4.9446    1.1593    1.1990 C.ar      1 <0>        -0.1214
     29 C23        -5.2054    1.4408    2.5270 C.ar      1 <0>        -0.0928
     30 C24        -5.0524    0.4562    3.4852 C.ar      1 <0>        -0.1223
     31 C25        -4.6423   -0.8109    3.1148 C.ar      1 <0>        -0.1131
     32 C26        -5.6561    2.8211    2.9303 C.3       1 <0>        -0.0797
     33 C27        -7.1835    2.8938    2.8803 C.3       1 <0>        -0.1466
     34 H2          0.8508    2.2389    0.8069 H         1 <0>         0.0499
     35 H3         -0.2840    1.9225   -0.5274 H         1 <0>         0.0527
     36 H4         -0.9042    2.3021    1.0973 H         1 <0>         0.0530
     37 H5          0.6855   -0.1901    0.3362 H         1 <0>         0.0598
     38 H6          0.0653    0.1895    1.9609 H         1 <0>         0.0595
     39 H7         -2.2507    0.1976    1.0750 H         1 <0>         0.0747
     40 H8         -1.6305   -0.1820   -0.5497 H         1 <0>         0.0637
     41 H9         -0.6610   -2.2945    0.3139 H         1 <0>         0.0755
     42 H10        -1.2812   -1.9150    1.9386 H         1 <0>         0.0719
     43 H11        -4.4897   -4.9153    2.3143 H         1 <0>         0.1405
     44 H12        -4.8593   -6.5521    4.1085 H         1 <0>         0.1300
     45 H13        -9.0745   -5.8483    3.8992 H         1 <0>         0.1252
     46 H14        -8.7179   -4.2012    2.1118 H         1 <0>         0.1309
     47 H15        -8.9671   -6.4952    5.8824 H         1 <0>         0.0615
     48 H16        -9.1232   -7.7885    4.6695 H         1 <0>         0.0623
     49 H17        -7.9115   -8.1547    7.4456 H         1 <0>         0.0805
     50 H18       -10.6497   -8.9405    6.3495 H         1 <0>         0.0579
     51 H19       -10.0140   -9.3659    7.9567 H         1 <0>         0.0632
     52 H20       -10.3398   -7.6638    7.5504 H         1 <0>         0.0575
     53 H21        -7.0643   -9.7127    5.7124 H         1 <0>         0.0637
     54 H22        -8.1012  -10.5623    6.8834 H         1 <0>         0.0550
     55 H23        -8.7369  -10.1370    5.2762 H         1 <0>         0.0541
     56 H24        -4.3265   -0.3264   -0.2084 H         1 <0>         0.1155
     57 H25        -5.0641    1.9286    0.4504 H         1 <0>         0.1139
     58 H26        -5.2559    0.6762    4.5228 H         1 <0>         0.1137
     59 H27        -4.5263   -1.5811    3.8629 H         1 <0>         0.1172
     60 H28        -5.3152    3.0330    3.9437 H         1 <0>         0.0659
     61 H29        -5.2347    3.5558    2.2441 H         1 <0>         0.0664
     62 H30        -7.5244    2.6819    1.8669 H         1 <0>         0.0564
     63 H31        -7.6049    2.1591    3.5664 H         1 <0>         0.0549
     64 H32        -7.5095    3.8922    3.1720 H         1 <0>         0.0525
@<TRIPOS>BOND
     1    1    2 1
     2    1   34 1
     3    1   35 1
     4    1   36 1
     5    2    3 1
     6    2   37 1
     7    2   38 1
     8    3    4 1
     9    3   39 1
    10    3   40 1
    11    4    5 1
    12    4   41 1
    13    4   42 1
    14    5   10 am
    15    5    6 1
    16    6    7 1
    17    6    8 1
    18    6   26 1
    19    8    9 2
    20    8   13 1
    21    9   10 1
    22    9   12 1
    23   10   11 2
    24   13   14 2
    25   13   15 1
    26   15   20 ar
    27   15   16 ar
    28   16   17 ar
    29   16   43 1
    30   17   18 ar
    31   17   44 1
    32   18   19 ar
    33   18   21 1
    34   19   20 ar
    35   19   45 1
    36   20   46 1
    37   21   22 1
    38   22   23 1
    39   22   47 1
    40   22   48 1
    41   23   24 1
    42   23   25 1
    43   23   49 1
    44   24   50 1
    45   24   51 1
    46   24   52 1
    47   25   53 1
    48   25   54 1
    49   25   55 1
    50   26   31 ar
    51   26   27 ar
    52   27   28 ar
    53   27   56 1
    54   28   29 ar
    55   28   57 1
    56   29   30 ar
    57   29   32 1
    58   30   31 ar
    59   30   58 1
    60   31   59 1
    61   32   33 1
    62   32   60 1
    63   32   61 1
    64   33   62 1
    65   33   63 1
    66   33   64 1
@<TRIPOS>MOLECULE
ZINC49111157
   47    49     0     0     0
SMALL
USER_CHARGES

@<TRIPOS>ATOM
      1 C1          3.3464    0.8040   -4.0599 C.3       1 <0>        -0.1514
      2 C2          3.1439   -0.6335   -3.5764 C.3       1 <0>        -0.1195
      3 C3          1.6560   -0.8800   -3.3187 C.3       1 <0>        -0.0738
      4 C4          1.4565   -2.2958   -2.8426 C.ar      1 <0>        -0.0934
      5 C5          1.2343   -3.3064   -3.7620 C.ar      1 <0>        -0.1220
      6 C6          1.0505   -4.6042   -3.3344 C.ar      1 <0>        -0.0606
      7 C7          1.0894   -4.8983   -1.9673 C.ar      1 <0>        -0.0444
      8 C8          1.3149   -3.8713   -1.0445 C.ar      1 <0>        -0.0913
      9 C9          1.5021   -2.5796   -1.4885 C.ar      1 <0>        -0.1241
     10 C10         0.8936   -6.2810   -1.5021 C.2       1 <0>         0.3951
     11 O1          1.8589   -6.8955   -0.7897 O.3       1 <0>        -0.6306
     12 C11        -0.2897   -6.9548   -1.7983 C.2       1 <0>        -0.4287
     13 C12        -0.4165   -8.3477   -1.4914 C.1       1 <0>         0.3220
     14 N1         -0.5172   -9.4528   -1.2479 N.1       1 <0>        -0.5370
     15 C13        -1.3651   -6.2630   -2.4018 C.2       1 <0>         0.4217
     16 O2         -1.3018   -5.0605   -2.5589 O.2       1 <0>        -0.4946
     17 C14        -2.5899   -7.0180   -2.8501 C.3       1 <0>        -0.0998
     18 C15        -3.5793   -6.0561   -3.4558 C.2       1 <0>         0.0950
     19 C16        -4.0553   -6.2695   -4.7113 C.2       1 <0>        -0.2041
     20 S1         -5.1479   -4.8652   -4.8929 S.3       1 <0>        -0.0279
     21 C17        -4.8521   -4.1495   -3.2814 C.2       1 <0>         0.1525
     22 N2         -3.9869   -5.0140   -2.7703 N.2       1 <0>        -0.4544
     23 C18        -5.4230   -2.9257   -2.6789 C.ar      1 <0>        -0.0057
     24 C19        -5.0478   -2.5375   -1.3921 C.ar      1 <0>        -0.0669
     25 C20        -5.5842   -1.3947   -0.8356 C.ar      1 <0>        -0.1206
     26 C21        -6.4926   -0.6343   -1.5504 C.ar      1 <0>        -0.1076
     27 C22        -6.8691   -1.0140   -2.8264 C.ar      1 <0>        -0.1221
     28 C23        -6.3350   -2.1510   -3.3969 C.ar      1 <0>        -0.0963
     29 H1          2.7872    0.9591   -4.9826 H         1 <0>         0.0520
     30 H2          2.9898    1.4972   -3.2980 H         1 <0>         0.0521
     31 H3          4.4064    0.9796   -4.2435 H         1 <0>         0.0511
     32 H4          3.5004   -1.3267   -4.3383 H         1 <0>         0.0619
     33 H5          3.7030   -0.7887   -2.6537 H         1 <0>         0.0622
     34 H6          1.2995   -0.1868   -2.5569 H         1 <0>         0.0653
     35 H7          1.0969   -0.7248   -4.2414 H         1 <0>         0.0651
     36 H8          1.2046   -3.0777   -4.8171 H         1 <0>         0.1101
     37 H9          0.8765   -5.3915   -4.0529 H         1 <0>         0.1121
     38 H10         1.3460   -4.0904    0.0126 H         1 <0>         0.1153
     39 H11         1.6803   -1.7862   -0.7777 H         1 <0>         0.1116
     40 H12        -2.3057   -7.7629   -3.5934 H         1 <0>         0.0959
     41 H13        -3.0443   -7.5150   -1.9930 H         1 <0>         0.0960
     42 H14        -3.8346   -7.0660   -5.4065 H         1 <0>         0.1960
     43 H15        -4.3393   -3.1306   -0.8329 H         1 <0>         0.1389
     44 H16        -5.2946   -1.0931    0.1602 H         1 <0>         0.1289
     45 H17        -6.9098    0.2593   -1.1102 H         1 <0>         0.1244
     46 H18        -7.5789   -0.4163   -3.3790 H         1 <0>         0.1271
     47 H19        -6.6258   -2.4435   -4.3950 H         1 <0>         0.1246
@<TRIPOS>BOND
     1    1    2 1
     2    1   29 1
     3    1   30 1
     4    1   31 1
     5    2    3 1
     6    2   32 1
     7    2   33 1
     8    3    4 1
     9    3   34 1
    10    3   35 1
    11    4    9 ar
    12    4    5 ar
    13    5    6 ar
    14    5   36 1
    15    6    7 ar
    16    6   37 1
    17    7    8 ar
    18    7   10 1
    19    8    9 ar
    20    8   38 1
    21    9   39 1
    22   10   11 1
    23   10   12 2
    24   12   13 1
    25   12   15 1
    26   13   14 3
    27   15   16 2
    28   15   17 1
    29   17   18 1
    30   17   40 1
    31   17   41 1
    32   18   22 1
    33   18   19 2
    34   19   20 1
    35   19   42 1
    36   20   21 1
    37   21   22 2
    38   21   23 1
    39   23   28 ar
    40   23   24 ar
    41   24   25 ar
    42   24   43 1
    43   25   26 ar
    44   25   44 1
    45   26   27 ar
    46   26   45 1
    47   27   28 ar
    48   27   46 1
    49   28   47 1
@<TRIPOS>MOLECULE
ZINC07988916
   58    60     0     0     0
SMALL
USER_CHARGES
N-[(4-dimethylaminophenyl)methyl]-2-(o-tolylsulfanyl)-N-(tetrahydrofuran-2-ylmethyl)acetamide
@<TRIPOS>ATOM
      1 C1          5.7343    0.7686   -9.3640 C.3       1 <0>        -0.1193
      2 C2          6.3463   -0.5151   -8.8653 C.ar      1 <0>        -0.0655
      3 C3          7.6452   -0.8393   -9.2047 C.ar      1 <0>        -0.1035
      4 C4          8.2058   -2.0195   -8.7518 C.ar      1 <0>        -0.1233
      5 C5          7.4702   -2.8770   -7.9538 C.ar      1 <0>        -0.1071
      6 C6          6.1729   -2.5572   -7.6065 C.ar      1 <0>        -0.1307
      7 C7          5.6062   -1.3716   -8.0595 C.ar      1 <0>        -0.0997
      8 S1          3.9508   -0.9592   -7.6188 S.3       1 <0>        -0.0344
      9 C8          3.4100   -2.3529   -6.5913 C.3       1 <0>        -0.1601
     10 C9          1.9901   -2.1239   -6.1411 C.2       1 <0>         0.5470
     11 O1          1.4010   -1.1194   -6.4802 O.2       1 <0>        -0.5180
     12 N1          1.3749   -3.0353   -5.3619 N.am      1 <0>        -0.6015
     13 C10        -0.0054   -2.8128   -4.9243 C.3       1 <0>         0.1642
     14 C11        -0.0032   -2.0663   -3.6151 C.ar      1 <0>        -0.1705
     15 C12        -0.0224   -0.6836   -3.6093 C.ar      1 <0>        -0.0435
     16 C13        -0.0209    0.0035   -2.4114 C.ar      1 <0>        -0.1997
     17 C14        -0.0000   -0.6959   -1.2114 C.ar      1 <0>         0.2200
     18 C15         0.0246   -2.0847   -1.2209 C.ar      1 <0>        -0.2029
     19 C16         0.0177   -2.7657   -2.4223 C.ar      1 <0>        -0.0579
     20 N2          0.0021   -0.0041    0.0020 N.pl3     1 <0>        -0.6387
     21 C17        -0.0178    1.4608    0.0101 C.3       1 <0>         0.0916
     22 C18         0.0241   -0.7433    1.2666 C.3       1 <0>         0.0926
     23 C19         2.0865   -4.2487   -4.9524 C.3       1 <0>         0.1133
     24 C20         1.8515   -5.3514   -5.9866 C.3       1 <0>         0.0544
     25 H1          0.7840   -5.4848   -6.1621 H         1 <0>         0.0762
     26 C21         2.4886   -6.6768   -5.5138 C.3       1 <0>        -0.1489
     27 C22         3.0386   -7.3125   -6.8102 C.3       1 <0>        -0.1547
     28 C23         2.6688   -6.2959   -7.9129 C.3       1 <0>         0.0443
     29 O2          2.5306   -5.0355   -7.2215 O.3       1 <0>        -0.3705
     30 H2          5.9310    1.5669   -8.6484 H         1 <0>         0.0757
     31 H3          6.1712    1.0290  -10.3280 H         1 <0>         0.0713
     32 H4          4.6579    0.6383   -9.4762 H         1 <0>         0.0733
     33 H5          8.2223   -0.1723   -9.8279 H         1 <0>         0.1268
     34 H6          9.2204   -2.2724   -9.0222 H         1 <0>         0.1237
     35 H7          7.9112   -3.7981   -7.6023 H         1 <0>         0.1229
     36 H8          5.5989   -3.2276   -6.9840 H         1 <0>         0.1206
     37 H9          4.0588   -2.4346   -5.7193 H         1 <0>         0.1067
     38 H10         3.4631   -3.2741   -7.1714 H         1 <0>         0.1407
     39 H11        -0.5046   -3.7729   -4.7943 H         1 <0>         0.0828
     40 H12        -0.5347   -2.2268   -5.6757 H         1 <0>         0.0921
     41 H13        -0.0390   -0.1405   -4.5427 H         1 <0>         0.1272
     42 H14        -0.0356    1.0834   -2.4076 H         1 <0>         0.1218
     43 H15         0.0454   -2.6314   -0.2897 H         1 <0>         0.1213
     44 H16         0.0327   -3.8456   -2.4304 H         1 <0>         0.1174
     45 H17         1.0048    1.8381    0.0023 H         1 <0>         0.0489
     46 H18        -0.5450    1.8219   -0.8730 H         1 <0>         0.0697
     47 H19        -0.5280    1.8123    0.9069 H         1 <0>         0.0670
     48 H20        -0.9979   -0.9406    1.5900 H         1 <0>         0.0487
     49 H21         0.5496   -1.6879    1.1262 H         1 <0>         0.0684
     50 H22         0.5371   -0.1514    2.0246 H         1 <0>         0.0666
     51 H23         3.1536   -4.0378   -4.8822 H         1 <0>         0.0867
     52 H24         1.7163   -4.5767   -3.9811 H         1 <0>         0.0984
     53 H25         3.2983   -6.4819   -4.8106 H         1 <0>         0.0787
     54 H26         1.7362   -7.3214   -5.0593 H         1 <0>         0.0807
     55 H27         4.1203   -7.4319   -6.7479 H         1 <0>         0.0765
     56 H28         2.5595   -8.2735   -6.9975 H         1 <0>         0.0782
     57 H29         3.4641   -6.2359   -8.6559 H         1 <0>         0.0927
     58 H30         1.7280   -6.5758   -8.3870 H         1 <0>         0.0613
@<TRIPOS>BOND
     1    1    2 1
     2    1   30 1
     3    1   31 1
     4    1   32 1
     5    2    7 ar
     6    2    3 ar
     7    3    4 ar
     8    3   33 1
     9    4    5 ar
    10    4   34 1
    11    5    6 ar
    12    5   35 1
    13    6    7 ar
    14    6   36 1
    15    7    8 1
    16    8    9 1
    17    9   10 1
    18    9   37 1
    19    9   38 1
    20   10   11 2
    21   10   12 am
    22   12   13 1
    23   12   23 1
    24   13   14 1
    25   13   39 1
    26   13   40 1
    27   14   19 ar
    28   14   15 ar
    29   15   16 ar
    30   15   41 1
    31   16   17 ar
    32   16   42 1
    33   17   18 ar
    34   17   20 1
    35   18   19 ar
    36   18   43 1
    37   19   44 1
    38   20   21 1
    39   20   22 1
    40   21   45 1
    41   21   46 1
    42   21   47 1
    43   22   48 1
    44   22   49 1
    45   22   50 1
    46   23   24 1
    47   23   51 1
    48   23   52 1
    49   24   25 1
    50   24   29 1
    51   24   26 1
    52   26   27 1
    53   26   53 1
    54   26   54 1
    55   27   28 1
    56   27   55 1
    57   27   56 1
    58   28   29 1
    59   28   57 1
    60   28   58 1
@<TRIPOS>MOLECULE
ZINC12784452
   56    57     0     0     0
SMALL
USER_CHARGES
(E)-3-[4-(diethylsulfamoyl)phenyl]-N-methyl-N-[(1R)-1-phenylethyl]prop-2-enamide
@<TRIPOS>ATOM
      1 C1         -0.2704    5.1581   -3.5402 C.3       1 <0>        -0.1756
      2 C2         -1.2058    5.0622   -2.3332 C.3       1 <0>         0.1196
      3 N1         -1.4456    3.6531   -2.0121 N.pl3     1 <0>        -0.9952
      4 C3         -2.4990    2.9117   -2.7099 C.3       1 <0>         0.1078
      5 C4         -3.8384    3.1475   -2.0092 C.3       1 <0>        -0.1782
      6 S1         -0.5259    2.8982   -0.8602 S.o2      1 <0>         2.6870
      7 O1         -0.5731    1.5078   -1.1498 O.2       1 <0>        -0.9527
      8 O2          0.6963    3.6186   -0.7800 O.2       1 <0>        -0.9508
      9 C5         -1.3428    3.1186    0.6854 C.ar      1 <0>        -0.6704
     10 C6         -1.0458    4.2193    1.4701 C.ar      1 <0>        -0.0205
     11 C7         -1.6843    4.4013    2.6787 C.ar      1 <0>        -0.1247
     12 C8         -2.6266    3.4650    3.1154 C.ar      1 <0>        -0.0169
     13 C9         -2.9173    2.3527    2.3193 C.ar      1 <0>        -0.1158
     14 C10        -2.2738    2.1872    1.1110 C.ar      1 <0>        -0.0204
     15 C11        -3.3087    3.6489    4.4069 C.2       1 <0>        -0.0312
     16 C12        -3.0258    4.7224    5.1717 C.2       1 <0>        -0.1959
     17 C13        -3.7043    4.9053    6.4563 C.2       1 <0>         0.5471
     18 O3         -4.5235    4.0883    6.8336 O.2       1 <0>        -0.5370
     19 N2         -3.4215    5.9786    7.2210 N.am      1 <0>        -0.6033
     20 C14        -2.4354    6.9621    6.7668 C.3       1 <0>         0.0750
     21 C15        -4.1003    6.1616    8.5062 C.3       1 <0>         0.1763
     22 H1         -4.8709    5.3994    8.6220 H         1 <0>         0.1137
     23 C16        -4.7445    7.5487    8.5498 C.3       1 <0>        -0.1606
     24 C17        -3.0988    6.0375    9.6254 C.ar      1 <0>        -0.0992
     25 C18        -2.0323    5.1663    9.5051 C.ar      1 <0>        -0.1033
     26 C19        -1.1112    5.0556   10.5299 C.ar      1 <0>        -0.1188
     27 C20        -1.2616    5.8095   11.6788 C.ar      1 <0>        -0.1189
     28 C21        -2.3310    6.6768   11.8013 C.ar      1 <0>        -0.1183
     29 C22        -3.2497    6.7907   10.7747 C.ar      1 <0>        -0.1134
     30 H2         -0.7297    4.6635   -4.3960 H         1 <0>         0.0604
     31 H3         -0.0920    6.2065   -3.7791 H         1 <0>         0.0703
     32 H4          0.6768    4.6727   -3.3053 H         1 <0>         0.0641
     33 H5         -2.1530    5.5476   -2.5681 H         1 <0>         0.0816
     34 H6         -0.7464    5.5568   -1.4773 H         1 <0>         0.0809
     35 H7         -2.5632    3.2565   -3.7420 H         1 <0>         0.0870
     36 H8         -2.2642    1.8474   -2.6964 H         1 <0>         0.0946
     37 H9         -3.7742    2.8027   -0.9771 H         1 <0>         0.0556
     38 H10        -4.0732    4.2118   -2.0227 H         1 <0>         0.0615
     39 H11        -4.6222    2.5959   -2.5284 H         1 <0>         0.0719
     40 H12        -0.3149    4.9395    1.1333 H         1 <0>         0.1433
     41 H13        -1.4543    5.2627    3.2882 H         1 <0>         0.1368
     42 H14        -3.6436    1.6251    2.6500 H         1 <0>         0.1402
     43 H15        -2.4972    1.3287    0.4949 H         1 <0>         0.1441
     44 H16        -4.0357    2.9238    4.7417 H         1 <0>         0.1427
     45 H17        -2.2988    5.4475    4.8369 H         1 <0>         0.1353
     46 H18        -2.9184    7.6831    6.1073 H         1 <0>         0.0611
     47 H19        -2.0169    7.4817    7.6288 H         1 <0>         0.0777
     48 H20        -1.6370    6.4534    6.2265 H         1 <0>         0.0719
     49 H21        -5.4689    7.6385    7.7403 H         1 <0>         0.0643
     50 H22        -5.2496    7.6849    9.5061 H         1 <0>         0.0749
     51 H23        -3.9740    8.3109    8.4341 H         1 <0>         0.0638
     52 H24        -1.9168    4.5745    8.6090 H         1 <0>         0.1161
     53 H25        -0.2755    4.3783   10.4341 H         1 <0>         0.1217
     54 H26        -0.5435    5.7211   12.4806 H         1 <0>         0.1222
     55 H27        -2.4486    7.2658   12.6989 H         1 <0>         0.1237
     56 H28        -4.0852    7.4683   10.8704 H         1 <0>         0.1271
@<TRIPOS>BOND
     1    1    2 1
     2    1   30 1
     3    1   31 1
     4    1   32 1
     5    2    3 1
     6    2   33 1
     7    2   34 1
     8    3    4 1
     9    3    6 1
    10    4    5 1
    11    4   35 1
    12    4   36 1
    13    5   37 1
    14    5   38 1
    15    5   39 1
    16    6    7 2
    17    6    8 2
    18    6    9 1
    19    9   14 ar
    20    9   10 ar
    21   10   11 ar
    22   10   40 1
    23   11   12 ar
    24   11   41 1
    25   12   13 ar
    26   12   15 1
    27   13   14 ar
    28   13   42 1
    29   14   43 1
    30   15   16 2
    31   15   44 1
    32   16   17 1
    33   16   45 1
    34   17   18 2
    35   17   19 am
    36   19   20 1
    37   19   21 1
    38   20   46 1
    39   20   47 1
    40   20   48 1
    41   21   22 1
    42   21   23 1
    43   21   24 1
    44   23   49 1
    45   23   50 1
    46   23   51 1
    47   24   29 ar
    48   24   25 ar
    49   25   26 ar
    50   25   52 1
    51   26   27 ar
    52   26   53 1
    53   27   28 ar
    54   27   54 1
    55   28   29 ar
    56   28   55 1
    57   29   56 1
@<TRIPOS>MOLECULE
ZINC35362867
   53    55     0     0     0
SMALL
USER_CHARGES

@<TRIPOS>ATOM
      1 C1          0.1602   -3.1679    1.1501 C.3       1 <0>        -0.1036
      2 C2         -0.1250   -2.0278    0.2068 C.2       1 <0>        -0.0970
      3 C3         -0.3206   -2.2647   -1.1409 C.2       1 <0>        -0.1598
      4 C4         -0.5751   -1.2169   -1.9623 C.2       1 <0>        -0.1584
      5 S1         -0.5437    0.1595   -0.8257 S.3       1 <0>         0.0482
      6 C5         -0.1991   -0.7554    0.6681 C.2       1 <0>        -0.1901
      7 C6         -0.0322   -0.2453    2.0763 C.3       1 <0>         0.1947
      8 N1         -1.3128   -0.3332    2.7824 N.am      1 <0>        -0.6029
      9 C7         -1.6155   -1.5056    3.6071 C.3       1 <0>         0.1517
     10 C8         -1.1419   -1.2637    5.0172 C.ar      1 <0>        -0.1193
     11 C9          0.1429   -1.6179    5.3845 C.ar      1 <0>        -0.0775
     12 C10         0.5785   -1.3962    6.6772 C.ar      1 <0>        -0.1557
     13 C11        -0.2724   -0.8190    7.6045 C.ar      1 <0>         0.1035
     14 C12        -1.5590   -0.4646    7.2354 C.ar      1 <0>        -0.1548
     15 C13        -1.9906   -0.6825    5.9408 C.ar      1 <0>        -0.0669
     16 F1          0.1522   -0.6022    8.8686 F         1 <0>        -0.1388
     17 C14        -2.2123    0.6645    2.6734 C.2       1 <0>         0.5057
     18 O1         -3.3089    0.5501    3.1787 O.2       1 <0>        -0.5141
     19 C15        -1.8556    1.9221    1.9236 C.3       1 <0>         0.0969
     20 N2         -2.9453    2.8928    2.0518 N.am      1 <0>        -0.5892
     21 C16        -2.9482    3.8483    3.1623 C.3       1 <0>         0.1291
     22 C17        -2.0818    5.0301    2.8105 C.2       1 <0>        -0.1853
     23 C18        -2.5542    6.2464    2.9269 C.2       1 <0>        -0.1580
     24 C19        -3.9451    2.9068    1.1481 C.2       1 <0>         0.6132
     25 O2         -4.0039    2.0436    0.2922 O.2       1 <0>        -0.5135
     26 C20        -4.9617    3.9617    1.1962 C.2       1 <0>        -0.2661
     27 C21        -6.1226    4.0915    0.4491 C.2       1 <0>        -0.0637
     28 C22        -6.8868    5.2008    0.7212 C.2       1 <0>        -0.1838
     29 C23        -6.4696    6.0711    1.6737 C.2       1 <0>        -0.2561
     30 S2         -5.0318    5.4083    2.2357 S.3       1 <0>         0.2351
     31 H1         -0.7713   -3.5046    1.6052 H         1 <0>         0.0710
     32 H2          0.6134   -3.9915    0.5982 H         1 <0>         0.0684
     33 H3          0.8447   -2.8324    1.9291 H         1 <0>         0.0665
     34 H4         -0.2710   -3.2695   -1.5337 H         1 <0>         0.1348
     35 H5         -0.7509   -1.2151   -3.0279 H         1 <0>         0.1866
     36 H6          0.7115   -0.8495    2.5959 H         1 <0>         0.1074
     37 H7          0.2975    0.7933    2.0498 H         1 <0>         0.0930
     38 H8         -2.6915   -1.6796    3.6101 H         1 <0>         0.0972
     39 H9         -1.1073   -2.3787    3.1979 H         1 <0>         0.0920
     40 H10         0.8064   -2.0684    4.6612 H         1 <0>         0.1314
     41 H11         1.5822   -1.6733    6.9641 H         1 <0>         0.1365
     42 H12        -2.2237   -0.0147    7.9580 H         1 <0>         0.1359
     43 H13        -2.9927   -0.4021    5.6514 H         1 <0>         0.1373
     44 H14        -0.9410    2.3456    2.3388 H         1 <0>         0.1099
     45 H15        -1.7013    1.6860    0.8707 H         1 <0>         0.1184
     46 H16        -3.9675    4.1874    3.3472 H         1 <0>         0.0915
     47 H17        -2.5578    3.3654    4.0582 H         1 <0>         0.0967
     48 H18        -1.0714    4.8742    2.4624 H         1 <0>         0.1205
     49 H19        -1.9761    7.0865    2.5715 H         1 <0>         0.1129
     50 H20        -3.5218    6.4090    3.3784 H         1 <0>         0.1045
     51 H21        -6.4080    3.3670   -0.2993 H         1 <0>         0.1470
     52 H22        -7.8067    5.3772    0.1836 H         1 <0>         0.1338
     53 H23        -6.9534    6.9798    1.9999 H         1 <0>         0.1831
@<TRIPOS>BOND
     1    1    2 1
     2    1   31 1
     3    1   32 1
     4    1   33 1
     5    2    6 2
     6    2    3 1
     7    3    4 2
     8    3   34 1
     9    4    5 1
    10    4   35 1
    11    5    6 1
    12    6    7 1
    13    7    8 1
    14    7   36 1
    15    7   37 1
    16    8    9 1
    17    8   17 am
    18    9   10 1
    19    9   38 1
    20    9   39 1
    21   10   15 ar
    22   10   11 ar
    23   11   12 ar
    24   11   40 1
    25   12   13 ar
    26   12   41 1
    27   13   14 ar
    28   13   16 1
    29   14   15 ar
    30   14   42 1
    31   15   43 1
    32   17   18 2
    33   17   19 1
    34   19   20 1
    35   19   44 1
    36   19   45 1
    37   20   21 1
    38   20   24 am
    39   21   22 1
    40   21   46 1
    41   21   47 1
    42   22   23 2
    43   22   48 1
    44   23   49 1
    45   23   50 1
    46   24   25 2
    47   24   26 1
    48   26   30 1
    49   26   27 2
    50   27   28 1
    51   27   51 1
    52   28   29 2
    53   28   52 1
    54   29   30 1
    55   29   53 1
@<TRIPOS>MOLECULE
ZINC37284966
   59    62     0     0     0
SMALL
USER_CHARGES

@<TRIPOS>ATOM
      1 C1         -0.3498    1.1224   -1.2720 C.3       1 <0>        -0.1519
      2 C2         -0.5015   -0.3913   -1.1090 C.3       1 <0>        -0.1418
      3 C3         -1.9095   -0.7111   -0.6029 C.3       1 <0>         0.0788
      4 N1         -2.0129   -2.1449   -0.3206 N.am      1 <0>        -0.6033
      5 C4         -1.7098   -2.6513    1.0203 C.3       1 <0>         0.1889
      6 C5         -2.9919   -2.8276    1.7924 C.2       1 <0>        -0.3562
      7 C6         -3.8632   -1.7960    2.2002 C.2       1 <0>         0.1882
      8 N2         -4.8664   -2.3451    2.8451 N.2       1 <0>        -0.3260
      9 O1         -4.6599   -3.7458    2.8652 O.3       1 <0>        -0.1104
     10 C7         -3.5146   -4.0073    2.2126 C.2       1 <0>         0.3998
     11 N3         -2.9639   -5.2592    2.0075 N.pl3     1 <0>        -0.5780
     12 C8         -1.6556   -5.5296    1.3937 C.3       1 <0>         0.0997
     13 C9         -1.4775   -7.0620    1.3509 C.3       1 <0>        -0.1296
     14 C10        -2.9368   -7.5836    1.4255 C.3       1 <0>        -0.1294
     15 C11        -3.5886   -6.5433    2.3738 C.3       1 <0>         0.1043
     16 C12        -3.6784   -0.3452    1.9452 C.ar      1 <0>        -0.0290
     17 C13        -2.4236    0.2384    2.1051 C.ar      1 <0>        -0.0898
     18 C14        -2.2573    1.5876    1.8662 C.ar      1 <0>        -0.1223
     19 C15        -3.3337    2.3600    1.4688 C.ar      1 <0>        -0.1027
     20 C16        -4.5817    1.7856    1.3086 C.ar      1 <0>        -0.1174
     21 C17        -4.7580    0.4363    1.5396 C.ar      1 <0>        -0.0856
     22 C18        -2.3869   -2.9982   -1.2945 C.2       1 <0>         0.5184
     23 O2         -2.5501   -4.1731   -1.0416 O.2       1 <0>        -0.5230
     24 C19        -2.6024   -2.4925   -2.6976 C.3       1 <0>        -0.1023
     25 C20        -3.0123   -3.6379   -3.5871 C.ar      1 <0>        -0.0648
     26 C21        -2.0498   -4.3811   -4.2445 C.ar      1 <0>        -0.1051
     27 C22        -2.4258   -5.4318   -5.0603 C.ar      1 <0>        -0.1187
     28 C23        -3.7641   -5.7395   -5.2185 C.ar      1 <0>        -0.1199
     29 C24        -4.7265   -4.9968   -4.5604 C.ar      1 <0>        -0.1183
     30 C25        -4.3504   -3.9488   -3.7411 C.ar      1 <0>        -0.1047
     31 H1          0.6784    1.3570   -1.5478 H         1 <0>         0.0580
     32 H2         -1.0244    1.4732   -2.0531 H         1 <0>         0.0557
     33 H3         -0.5952    1.6156   -0.3315 H         1 <0>         0.0584
     34 H4         -0.3418   -0.8781   -2.0710 H         1 <0>         0.0624
     35 H5          0.2339   -0.7549   -0.3913 H         1 <0>         0.0661
     36 H6         -2.1049   -0.1463    0.3087 H         1 <0>         0.1052
     37 H7         -2.6401   -0.4370   -1.3639 H         1 <0>         0.0736
     38 H8         -1.1994   -3.6110    0.9395 H         1 <0>         0.0944
     39 H9         -1.0673   -1.9407    1.5403 H         1 <0>         0.0799
     40 H10        -1.6301   -5.1251    0.3818 H         1 <0>         0.1140
     41 H11        -0.8644   -5.0811    1.9945 H         1 <0>         0.0634
     42 H12        -1.0053   -7.3694    0.4178 H         1 <0>         0.0872
     43 H13        -0.9002   -7.4072    2.2086 H         1 <0>         0.0764
     44 H14        -3.4074   -7.5699    0.4424 H         1 <0>         0.0810
     45 H15        -2.9729   -8.5825    1.8602 H         1 <0>         0.0873
     46 H16        -3.3727   -6.7871    3.4140 H         1 <0>         0.0715
     47 H17        -4.6652   -6.5021    2.2086 H         1 <0>         0.0768
     48 H18        -1.5826   -0.3638    2.4157 H         1 <0>         0.1292
     49 H19        -1.2850    2.0411    1.9902 H         1 <0>         0.1312
     50 H20        -3.1993    3.4154    1.2833 H         1 <0>         0.1282
     51 H21        -5.4189    2.3933    0.9984 H         1 <0>         0.1294
     52 H22        -5.7319   -0.0121    1.4099 H         1 <0>         0.1266
     53 H23        -3.3872   -1.7360   -2.6947 H         1 <0>         0.0985
     54 H24        -1.6771   -2.0547   -3.0722 H         1 <0>         0.1018
     55 H25        -1.0042   -4.1407   -4.1209 H         1 <0>         0.1178
     56 H26        -1.6739   -6.0120   -5.5745 H         1 <0>         0.1211
     57 H27        -4.0579   -6.5599   -5.8564 H         1 <0>         0.1205
     58 H28        -5.7722   -5.2370   -4.6842 H         1 <0>         0.1205
     59 H29        -5.1021   -3.3710   -3.2240 H         1 <0>         0.1161
@<TRIPOS>BOND
     1    1    2 1
     2    1   31 1
     3    1   32 1
     4    1   33 1
     5    2    3 1
     6    2   34 1
     7    2   35 1
     8    3    4 1
     9    3   36 1
    10    3   37 1
    11    4    5 1
    12    4   22 am
    13    5    6 1
    14    5   38 1
    15    5   39 1
    16    6   10 2
    17    6    7 1
    18    7    8 2
    19    7   16 1
    20    8    9 1
    21    9   10 1
    22   10   11 1
    23   11   15 1
    24   11   12 1
    25   12   13 1
    26   12   40 1
    27   12   41 1
    28   13   14 1
    29   13   42 1
    30   13   43 1
    31   14   15 1
    32   14   44 1
    33   14   45 1
    34   15   46 1
    35   15   47 1
    36   16   21 ar
    37   16   17 ar
    38   17   18 ar
    39   17   48 1
    40   18   19 ar
    41   18   49 1
    42   19   20 ar
    43   19   50 1
    44   20   21 ar
    45   20   51 1
    46   21   52 1
    47   22   23 2
    48   22   24 1
    49   24   25 1
    50   24   53 1
    51   24   54 1
    52   25   30 ar
    53   25   26 ar
    54   26   27 ar
    55   26   55 1
    56   27   28 ar
    57   27   56 1
    58   28   29 ar
    59   28   57 1
    60   29   30 ar
    61   29   58 1
    62   30   59 1
@<TRIPOS>MOLECULE
ZINC59739415
   52    55     0     0     0
SMALL
USER_CHARGES

@<TRIPOS>ATOM
      1 C1         -0.0187    1.5258    0.0104 C.3       1 <0>        -0.1524
      2 C2          0.0021   -0.0041    0.0020 C.3       1 <0>        -0.0734
      3 H1          0.5293   -0.3651    0.8851 H         1 <0>         0.1032
      4 C3          0.7182   -0.4975   -1.2568 C.3       1 <0>        -0.0935
      5 C4          0.8493   -2.0210   -1.2049 C.3       1 <0>        -0.0871
      6 C5          1.5546   -2.5070   -2.4448 C.ar      1 <0>        -0.0808
      7 C6          0.8244   -2.8341   -3.5721 C.ar      1 <0>        -0.1170
      8 C7          1.4715   -3.2799   -4.7094 C.ar      1 <0>        -0.1182
      9 C8          2.8487   -3.3982   -4.7196 C.ar      1 <0>        -0.1250
     10 C9          3.5790   -3.0702   -3.5927 C.ar      1 <0>        -0.1180
     11 C10         2.9323   -2.6203   -2.4567 C.ar      1 <0>        -0.1176
     12 S1         -1.6997   -0.6320    0.0149 S.3       1 <0>         0.0199
     13 C11        -2.3349   -0.1100    1.5733 C.2       1 <0>         0.1865
     14 N1         -1.6899    0.5811    2.4853 N.2       1 <0>        -0.2906
     15 N2         -2.4486    0.7905    3.5010 N.2       1 <0>        -0.2539
     16 C12        -3.6280    0.2449    3.3002 C.2       1 <0>         0.2571
     17 N3         -3.5928   -0.3439    2.0557 N.pl3     1 <0>        -0.4541
     18 C13        -4.6758   -1.0711    1.3890 C.3       1 <0>         0.1021
     19 C14        -4.5951   -2.5544    1.7554 C.3       1 <0>         0.0633
     20 H2         -4.5895   -2.6762    2.8385 H         1 <0>         0.0794
     21 C15        -5.7853   -3.3275    1.1335 C.3       1 <0>        -0.1476
     22 C16        -5.1951   -4.7617    1.0523 C.3       1 <0>        -0.1538
     23 C17        -3.7048   -4.4865    0.7579 C.3       1 <0>         0.0494
     24 O1         -3.4193   -3.1466    1.1809 O.3       1 <0>        -0.3624
     25 C18        -4.7712    0.2651    4.2271 C.2       1 <0>        -0.0962
     26 C19        -4.9776    1.0571    5.3283 C.2       1 <0>        -0.0991
     27 C20        -6.1382    0.8943    6.0509 C.2       1 <0>        -0.1557
     28 C21        -7.0398   -0.0408    5.6542 C.2       1 <0>        -0.1561
     29 S2         -6.2539   -0.7292    4.2066 S.3       1 <0>         0.0594
     30 H3          1.0039    1.9031    0.0027 H         1 <0>         0.0688
     31 H4         -0.5459    1.8868   -0.8726 H         1 <0>         0.0637
     32 H5         -0.5289    1.8773    0.9072 H         1 <0>         0.0745
     33 H6          0.1430   -0.2121   -2.1375 H         1 <0>         0.0757
     34 H7          1.7103   -0.0491   -1.3098 H         1 <0>         0.0882
     35 H8          1.4245   -2.3064   -0.3242 H         1 <0>         0.0768
     36 H9         -0.1428   -2.4694   -1.1520 H         1 <0>         0.0822
     37 H10        -0.2516   -2.7418   -3.5641 H         1 <0>         0.1208
     38 H11         0.9009   -3.5362   -5.5899 H         1 <0>         0.1211
     39 H12         3.3542   -3.7471   -5.6080 H         1 <0>         0.1205
     40 H13         4.6550   -3.1628   -3.6005 H         1 <0>         0.1213
     41 H14         3.5031   -2.3605   -1.5775 H         1 <0>         0.1213
     42 H15        -5.6361   -0.6689    1.7118 H         1 <0>         0.1119
     43 H16        -4.5788   -0.9577    0.3093 H         1 <0>         0.1117
     44 H17        -6.6573   -3.2979    1.7868 H         1 <0>         0.0905
     45 H18        -6.0267   -2.9453    0.1417 H         1 <0>         0.0859
     46 H19        -5.3130   -5.2840    2.0017 H         1 <0>         0.0791
     47 H20        -5.6536   -5.3244    0.2392 H         1 <0>         0.0875
     48 H21        -3.0825   -5.1885    1.3130 H         1 <0>         0.0704
     49 H22        -3.5143   -4.5866   -0.3106 H         1 <0>         0.0743
     50 H23        -4.2442    1.7932    5.6226 H         1 <0>         0.1473
     51 H24        -6.3291    1.5025    6.9227 H         1 <0>         0.1450
     52 H25        -7.9898   -0.2989    6.0982 H         1 <0>         0.1936
@<TRIPOS>BOND
     1    1    2 1
     2    1   30 1
     3    1   31 1
     4    1   32 1
     5    2    3 1
     6    2    4 1
     7    2   12 1
     8    4    5 1
     9    4   33 1
    10    4   34 1
    11    5    6 1
    12    5   35 1
    13    5   36 1
    14    6   11 ar
    15    6    7 ar
    16    7    8 ar
    17    7   37 1
    18    8    9 ar
    19    8   38 1
    20    9   10 ar
    21    9   39 1
    22   10   11 ar
    23   10   40 1
    24   11   41 1
    25   12   13 1
    26   13   17 1
    27   13   14 2
    28   14   15 1
    29   15   16 2
    30   16   17 1
    31   16   25 1
    32   17   18 1
    33   18   19 1
    34   18   42 1
    35   18   43 1
    36   19   20 1
    37   19   24 1
    38   19   21 1
    39   21   22 1
    40   21   44 1
    41   21   45 1
    42   22   23 1
    43   22   46 1
    44   22   47 1
    45   23   24 1
    46   23   48 1
    47   23   49 1
    48   25   29 1
    49   25   26 2
    50   26   27 1
    51   26   50 1
    52   27   28 2
    53   27   51 1
    54   28   29 1
    55   28   52 1
@<TRIPOS>MOLECULE
ZINC02823257
   52    54     0     0     0
SMALL
USER_CHARGES
8-[3-(2-methoxy-4-prop-1-enyl-phenoxy)propoxy]-2-methyl-quinoline
@<TRIPOS>ATOM
      1 C1          9.5623    3.6408   13.5419 C.3       1 <0>        -0.1281
      2 C2          8.6644    3.4239   12.3512 C.2       1 <0>        -0.1445
      3 C3          9.1752    2.9958   11.2049 C.2       1 <0>        -0.1255
      4 C4          8.2947    2.7831   10.0373 C.ar      1 <0>        -0.0501
      5 C5          6.9255    3.0329   10.1394 C.ar      1 <0>        -0.1121
      6 C6          6.1056    2.8394    9.0469 C.ar      1 <0>        -0.1702
      7 C7          6.6373    2.3866    7.8487 C.ar      1 <0>         0.1013
      8 C8          8.0030    2.1355    7.7401 C.ar      1 <0>         0.1036
      9 C9          8.8308    2.3326    8.8301 C.ar      1 <0>        -0.1642
     10 O1          8.5222    1.6961    6.5625 O.3       1 <0>        -0.3055
     11 C10         9.9308    1.4590    6.5228 C.3       1 <0>         0.0253
     12 O2          5.8246    2.1928    6.7761 O.3       1 <0>        -0.2995
     13 C11         4.4345    2.4697    6.9571 C.3       1 <0>         0.0637
     14 C12         3.6856    2.1954    5.6514 C.3       1 <0>        -0.1185
     15 C13         2.1971    2.4918    5.8452 C.3       1 <0>         0.0600
     16 O3          1.4977    2.2356    4.6257 O.3       1 <0>        -0.2879
     17 C14         0.1564    2.4505    4.6272 C.ar      1 <0>         0.1628
     18 C15        -0.4672    2.8915    5.7597 C.ar      1 <0>        -0.2133
     19 C16        -1.8407    3.1169    5.7804 C.ar      1 <0>        -0.0746
     20 C17        -2.6022    2.9039    4.6714 C.ar      1 <0>        -0.1363
     21 C18        -1.9973    2.4506    3.4880 C.ar      1 <0>        -0.0737
     22 C19        -0.6001    2.2191    3.4595 C.ar      1 <0>         0.1138
     23 N1         -0.0198    1.7880    2.3360 N.ar      1 <0>        -0.4524
     24 C20        -0.7181    1.5718    1.2479 C.ar      1 <0>         0.1461
     25 C21        -2.0945    1.7849    1.2058 C.ar      1 <0>        -0.1580
     26 C22        -2.7512    2.2193    2.3217 C.ar      1 <0>        -0.0648
     27 C23        -0.0127    1.0858    0.0080 C.3       1 <0>        -0.1069
     28 H1         10.0498    2.7021   13.8051 H         1 <0>         0.0681
     29 H2         10.3184    4.3863   13.2958 H         1 <0>         0.0681
     30 H3          8.9682    3.9908   14.3861 H         1 <0>         0.0635
     31 H4          7.6049    3.6172   12.4315 H         1 <0>         0.1133
     32 H5         10.2347    2.8025   11.1246 H         1 <0>         0.1178
     33 H6          6.5083    3.3816   11.0725 H         1 <0>         0.1298
     34 H7          5.0469    3.0373    9.1260 H         1 <0>         0.1360
     35 H8          9.8899    2.1379    8.7475 H         1 <0>         0.1375
     36 H9         10.4614    2.3836    6.7500 H         1 <0>         0.0553
     37 H10        10.1923    0.6995    7.2597 H         1 <0>         0.0553
     38 H11        10.2131    1.1129    5.5285 H         1 <0>         0.1020
     39 H12         4.3057    3.5153    7.2370 H         1 <0>         0.0659
     40 H13         4.0364    1.8308    7.7454 H         1 <0>         0.0659
     41 H14         3.8144    1.1498    5.3715 H         1 <0>         0.0886
     42 H15         4.0837    2.8343    4.8631 H         1 <0>         0.0886
     43 H16         2.0684    3.5374    6.1251 H         1 <0>         0.0680
     44 H17         1.7990    1.8530    6.6335 H         1 <0>         0.0680
     45 H18         0.1141    3.0677    6.6526 H         1 <0>         0.1343
     46 H19        -2.3092    3.4660    6.6888 H         1 <0>         0.1304
     47 H20        -3.6668    3.0827    4.7021 H         1 <0>         0.1321
     48 H21        -2.6421    1.6024    0.2930 H         1 <0>         0.1399
     49 H22        -3.8182    2.3856    2.3083 H         1 <0>         0.1434
     50 H23         0.0021   -0.0041    0.0020 H         1 <0>         0.0810
     51 H24         1.0099    1.4631    0.0003 H         1 <0>         0.0796
     52 H25        -0.5399    1.4469   -0.8751 H         1 <0>         0.0773
@<TRIPOS>BOND
     1    1    2 1
     2    1   28 1
     3    1   29 1
     4    1   30 1
     5    2    3 2
     6    2   31 1
     7    3    4 1
     8    3   32 1
     9    4    9 ar
    10    4    5 ar
    11    5    6 ar
    12    5   33 1
    13    6    7 ar
    14    6   34 1
    15    7    8 ar
    16    7   12 1
    17    8    9 ar
    18    8   10 1
    19    9   35 1
    20   10   11 1
    21   11   36 1
    22   11   37 1
    23   11   38 1
    24   12   13 1
    25   13   14 1
    26   13   39 1
    27   13   40 1
    28   14   15 1
    29   14   41 1
    30   14   42 1
    31   15   16 1
    32   15   43 1
    33   15   44 1
    34   16   17 1
    35   17   22 ar
    36   17   18 ar
    37   18   19 ar
    38   18   45 1
    39   19   20 ar
    40   19   46 1
    41   20   21 ar
    42   20   47 1
    43   21   26 ar
    44   21   22 ar
    45   22   23 ar
    46   23   24 ar
    47   24   25 ar
    48   24   27 1
    49   25   26 ar
    50   25   48 1
    51   26   49 1
    52   27   50 1
    53   27   51 1
    54   27   52 1
@<TRIPOS>MOLECULE
ZINC12471334
   59    61     0     0     0
SMALL
USER_CHARGES
(E)-N-[(4-but-2-ynoxyphenyl)methyl]-N-cyclopentyl-3-(4-methoxyphenyl)prop-2-enamide
@<TRIPOS>ATOM
      1 C1          5.9129   -8.3111    5.4305 C.3       1 <0>        -0.0509
      2 C2          5.5534   -6.9387    5.0381 C.1       1 <0>        -0.1368
      3 C3          5.2667   -5.8441    4.7251 C.1       1 <0>        -0.2097
      4 C4          4.9072   -4.4716    4.3327 C.3       1 <0>         0.1800
      5 O1          5.6436   -4.1017    3.1653 O.3       1 <0>        -0.3108
      6 C5          5.4273   -2.8553    2.6686 C.ar      1 <0>         0.1346
      7 C6          6.1086   -2.4303    1.5373 C.ar      1 <0>        -0.1521
      8 C7          5.8873   -1.1627    1.0346 C.ar      1 <0>        -0.0515
      9 C8          4.9873   -0.3180    1.6578 C.ar      1 <0>        -0.1438
     10 C9          4.3113   -0.7372    2.7887 C.ar      1 <0>        -0.0648
     11 C10         4.5252   -2.0057    3.2923 C.ar      1 <0>        -0.2133
     12 C11         4.7474    1.0640    1.1071 C.3       1 <0>         0.1587
     13 N1          3.6549    1.0184    0.1321 N.am      1 <0>        -0.6057
     14 C12         2.2720    1.2197    0.5716 C.3       1 <0>         0.1364
     15 C13         1.6359    2.4307   -0.1550 C.3       1 <0>        -0.1556
     16 C14         0.1191    2.1576   -0.0888 C.3       1 <0>        -0.1237
     17 C15        -0.0467    0.6378    0.0859 C.3       1 <0>        -0.1210
     18 C16         1.3752    0.0405    0.1198 C.3       1 <0>        -0.1499
     19 C17         3.9221    0.7911   -1.1692 C.2       1 <0>         0.5522
     20 O2          5.0582    0.5322   -1.5211 O.2       1 <0>        -0.5419
     21 C18         2.8469    0.8556   -2.1587 C.2       1 <0>        -0.2445
     22 C19         3.1304    0.7314   -3.4725 C.2       1 <0>        -0.0157
     23 C20         2.0498    0.7962   -4.4669 C.ar      1 <0>        -0.1158
     24 C21         0.7253    0.9809   -4.0536 C.ar      1 <0>        -0.0595
     25 C22        -0.2823    1.0472   -4.9893 C.ar      1 <0>        -0.2111
     26 C23         0.0124    0.9190   -6.3419 C.ar      1 <0>         0.1414
     27 C24         1.3255    0.7292   -6.7572 C.ar      1 <0>        -0.1543
     28 C25         2.3411    0.6677   -5.8299 C.ar      1 <0>        -0.0522
     29 O3         -0.9855    0.9789   -7.2601 O.3       1 <0>        -0.3140
     30 C26        -2.3115    1.1757   -6.7653 C.3       1 <0>         0.0216
     31 H1          5.2537   -8.6439    6.2458 H         1 <0>         0.0869
     32 H2          6.9583   -8.3328    5.7721 H         1 <0>         0.0869
     33 H3          5.7953   -8.9821    4.5668 H         1 <0>         0.0874
     34 H4          3.8296   -4.4221    4.1175 H         1 <0>         0.0869
     35 H5          5.1493   -3.7803    5.1533 H         1 <0>         0.0876
     36 H6          6.8111   -3.0899    1.0498 H         1 <0>         0.1308
     37 H7          6.4174   -0.8314    0.1540 H         1 <0>         0.1369
     38 H8          3.6123   -0.0739    3.2765 H         1 <0>         0.1227
     39 H9          3.9933   -2.3344    4.1729 H         1 <0>         0.1283
     40 H10         4.4777    1.7442    1.9284 H         1 <0>         0.0858
     41 H11         5.6623    1.4269    0.6159 H         1 <0>         0.0940
     42 H12         2.3730    1.3338    1.6610 H         1 <0>         0.0973
     43 H13         1.9115    3.3583    0.3681 H         1 <0>         0.0723
     44 H14         2.0032    2.4710   -1.1911 H         1 <0>         0.0892
     45 H15        -0.3142    2.7000    0.7644 H         1 <0>         0.0701
     46 H16        -0.3560    2.4995   -1.0201 H         1 <0>         0.0676
     47 H17        -0.5807    0.4328    1.0255 H         1 <0>         0.0703
     48 H18        -0.6225    0.2322   -0.7591 H         1 <0>         0.0679
     49 H19         1.7001   -0.3083   -0.8715 H         1 <0>         0.0877
     50 H20         1.4598   -0.7830    0.8441 H         1 <0>         0.0722
     51 H21         1.8072    1.0053   -1.8321 H         1 <0>         0.1525
     52 H22         4.1701    0.5817   -3.7991 H         1 <0>         0.1376
     53 H23         0.4948    1.0758   -3.0028 H         1 <0>         0.1285
     54 H24        -1.3040    1.1942   -4.6718 H         1 <0>         0.1321
     55 H25         1.5492    0.6301   -7.8091 H         1 <0>         0.1358
     56 H26         3.3609    0.5202   -6.1536 H         1 <0>         0.1366
     57 H27        -3.0170    1.2048   -7.6087 H         1 <0>         0.1044
     58 H28        -2.3598    2.1263   -6.2139 H         1 <0>         0.0586
     59 H29        -2.5784    0.3475   -6.0924 H         1 <0>         0.0586
@<TRIPOS>BOND
     1    1    2 1
     2    1   31 1
     3    1   32 1
     4    1   33 1
     5    2    3 3
     6    3    4 1
     7    4    5 1
     8    4   34 1
     9    4   35 1
    10    5    6 1
    11    6   11 ar
    12    6    7 ar
    13    7    8 ar
    14    7   36 1
    15    8    9 ar
    16    8   37 1
    17    9   10 ar
    18    9   12 1
    19   10   11 ar
    20   10   38 1
    21   11   39 1
    22   12   13 1
    23   12   40 1
    24   12   41 1
    25   13   14 1
    26   13   19 am
    27   14   18 1
    28   14   15 1
    29   14   42 1
    30   15   16 1
    31   15   43 1
    32   15   44 1
    33   16   17 1
    34   16   45 1
    35   16   46 1
    36   17   18 1
    37   17   47 1
    38   17   48 1
    39   18   49 1
    40   18   50 1
    41   19   20 2
    42   19   21 1
    43   21   22 2
    44   21   51 1
    45   22   23 1
    46   22   52 1
    47   23   28 ar
    48   23   24 ar
    49   24   25 ar
    50   24   53 1
    51   25   26 ar
    52   25   54 1
    53   26   27 ar
    54   26   29 1
    55   27   28 ar
    56   27   55 1
    57   28   56 1
    58   29   30 1
    59   30   57 1
    60   30   58 1
    61   30   59 1
@<TRIPOS>MOLECULE
ZINC39899886
   52    55     0     0     0
SMALL
USER_CHARGES

@<TRIPOS>ATOM
      1 C1         -0.2927    1.2725   -0.1842 C.3       1 <0>        -0.1749
      2 C2         -0.0342   -0.2291   -0.0450 C.3       1 <0>         0.1713
      3 H1         -0.9855   -0.7599   -0.0110 H         1 <0>         0.0885
      4 C3          0.7688   -0.7121   -1.2252 C.2       1 <0>         0.2761
      5 N1          2.0413   -0.5021   -1.3972 N.2       1 <0>        -0.4558
      6 C4          2.4448   -1.0727   -2.5613 C.ar      1 <0>         0.0431
      7 C5          3.6747   -1.1522   -3.2201 C.ar      1 <0>        -0.0580
      8 C6          3.7670   -1.8137   -4.4117 C.ar      1 <0>        -0.1277
      9 C7          2.6496   -2.4099   -4.9788 C.ar      1 <0>        -0.0951
     10 C8          1.4262   -2.3443   -4.3469 C.ar      1 <0>        -0.1127
     11 C9          1.3133   -1.6766   -3.1349 C.ar      1 <0>         0.0551
     12 N2          0.2700   -1.4361   -2.2633 N.pl3     1 <0>        -0.4818
     13 C10        -1.1177   -1.8762   -2.4274 C.3       1 <0>         0.1107
     14 C11        -1.9044   -0.8086   -3.1903 C.3       1 <0>        -0.1397
     15 C12        -3.3537   -1.2682   -3.3617 C.3       1 <0>         0.0641
     16 O1         -4.0885   -0.2710   -4.0742 O.3       1 <0>        -0.3129
     17 C13        -5.4022   -0.5250   -4.3123 C.ar      1 <0>         0.1272
     18 C14        -5.9736   -1.7071   -3.8643 C.ar      1 <0>        -0.2098
     19 C15        -7.3093   -1.9628   -4.1071 C.ar      1 <0>        -0.0801
     20 C16        -8.0764   -1.0419   -4.7965 C.ar      1 <0>        -0.1567
     21 C17        -7.5091    0.1368   -5.2445 C.ar      1 <0>        -0.0795
     22 C18        -6.1754    0.3999   -4.9988 C.ar      1 <0>        -0.1513
     23 O2          0.6932   -0.4774    1.1597 O.3       1 <0>        -0.2895
     24 C19        -0.0306   -0.5997    2.3034 C.ar      1 <0>         0.1284
     25 C20        -1.3997   -0.3764    2.2864 C.ar      1 <0>        -0.2146
     26 C21        -2.1334   -0.5018    3.4502 C.ar      1 <0>        -0.0789
     27 C22        -1.5042   -0.8491    4.6314 C.ar      1 <0>        -0.1566
     28 C23        -0.1397   -1.0717    4.6511 C.ar      1 <0>        -0.0781
     29 C24         0.5975   -0.9536    3.4887 C.ar      1 <0>        -0.1475
     30 H2          0.6586    1.8034   -0.2182 H         1 <0>         0.0835
     31 H3         -0.8476    1.4620   -1.1031 H         1 <0>         0.0750
     32 H4         -0.8735    1.6219    0.6695 H         1 <0>         0.0785
     33 H5          4.5506   -0.6912   -2.7880 H         1 <0>         0.1313
     34 H6          4.7193   -1.8729   -4.9178 H         1 <0>         0.1317
     35 H7          2.7389   -2.9286   -5.9219 H         1 <0>         0.1320
     36 H8          0.5597   -2.8103   -4.7924 H         1 <0>         0.1222
     37 H9         -1.1384   -2.8117   -2.9866 H         1 <0>         0.1003
     38 H10        -1.5688   -2.0289   -1.4470 H         1 <0>         0.0963
     39 H11        -1.8837    0.1269   -2.6312 H         1 <0>         0.0836
     40 H12        -1.4533   -0.6559   -4.1707 H         1 <0>         0.0868
     41 H13        -3.3744   -2.2036   -3.9208 H         1 <0>         0.0678
     42 H14        -3.8048   -1.4208   -2.3813 H         1 <0>         0.0671
     43 H15        -5.3746   -2.4270   -3.3264 H         1 <0>         0.1265
     44 H16        -7.7546   -2.8829   -3.7586 H         1 <0>         0.1257
     45 H17        -9.1204   -1.2437   -4.9857 H         1 <0>         0.1252
     46 H18        -8.1104    0.8544   -5.7830 H         1 <0>         0.1308
     47 H19        -5.7339    1.3227   -5.3450 H         1 <0>         0.1309
     48 H20        -1.8916   -0.1045    1.3642 H         1 <0>         0.1270
     49 H21        -3.1992   -0.3281    3.4375 H         1 <0>         0.1256
     50 H22        -2.0794   -0.9463    5.5403 H         1 <0>         0.1251
     51 H23         0.3496   -1.3425    5.5751 H         1 <0>         0.1311
     52 H24         1.6625   -1.1320    3.5037 H         1 <0>         0.1326
@<TRIPOS>BOND
     1    1    2 1
     2    1   30 1
     3    1   31 1
     4    1   32 1
     5    2    3 1
     6    2    4 1
     7    2   23 1
     8    4   12 1
     9    4    5 2
    10    5    6 1
    11    6   11 ar
    12    6    7 ar
    13    7    8 ar
    14    7   33 1
    15    8    9 ar
    16    8   34 1
    17    9   10 ar
    18    9   35 1
    19   10   11 ar
    20   10   36 1
    21   11   12 1
    22   12   13 1
    23   13   14 1
    24   13   37 1
    25   13   38 1
    26   14   15 1
    27   14   39 1
    28   14   40 1
    29   15   16 1
    30   15   41 1
    31   15   42 1
    32   16   17 1
    33   17   22 ar
    34   17   18 ar
    35   18   19 ar
    36   18   43 1
    37   19   20 ar
    38   19   44 1
    39   20   21 ar
    40   20   45 1
    41   21   22 ar
    42   21   46 1
    43   22   47 1
    44   23   24 1
    45   24   29 ar
    46   24   25 ar
    47   25   26 ar
    48   25   48 1
    49   26   27 ar
    50   26   49 1
    51   27   28 ar
    52   27   50 1
    53   28   29 ar
    54   28   51 1
    55   29   52 1
@<TRIPOS>MOLECULE
ZINC43762491
   62    63     0     0     0
SMALL
NO_CHARGES

@<TRIPOS>ATOM
      1 C1         -0.0688    2.0947    1.1516 C.3       1 <0>        -0.1531
      2 C2         -0.0613    0.6771    1.7156 C.3       1 <0>        -0.0884
      3 H1         -0.9360    0.6142    2.4066 H         1 <0>         0.0684
      4 C3         -0.2989   -0.3519    0.6239 C.3       1 <0>        -0.1109
      5 C4          0.9672   -0.6168   -0.1824 C.3       1 <0>        -0.1111
      6 C5          2.0841   -1.0795    0.7524 C.3       1 <0>        -0.0697
      7 H2          1.7505   -1.9823    1.2792 H         1 <0>         0.0778
      8 C6          3.3117   -1.4381   -0.0906 C.3       1 <0>        -0.1601
      9 C7          4.4329   -1.8293    0.8443 C.2       1 <0>         0.3760
     10 C8          4.7826   -0.8775    1.9636 C.3       1 <0>        -0.1332
     11 C9          3.5066   -0.5047    2.7291 C.3       1 <0>        -0.0638
     12 H3          3.1713   -1.3896    3.2654 H         1 <0>         0.0985
     13 C10         2.4167    0.0024    1.7754 C.3       1 <0>        -0.0288
     14 C11         1.1708    0.3962    2.5604 C.3       1 <0>        -0.0626
     15 H4          1.3930    1.3152    3.1303 H         1 <0>         0.0742
     16 C12         0.7972   -0.6917    3.5793 C.3       1 <0>        -0.1195
     17 C13        -0.2402   -0.1387    4.5585 C.3       1 <0>        -0.0859
     18 C14        -0.5675   -1.1881    5.5894 C.2       1 <0>        -0.1254
     19 C15         0.0574   -1.1925    6.7407 C.2       1 <0>        -0.1968
     20 C16        -1.6136   -2.2324    5.2957 C.3       1 <0>        -0.1203
     21 C17         2.9809    1.2417    1.0612 C.3       1 <0>        -0.1589
     22 C18         3.8709    0.5976    3.7321 C.3       1 <0>        -0.1175
     23 C19         4.7992    0.0244    4.8049 C.3       1 <0>        -0.1050
     24 C20         5.0417    1.0652    5.8675 C.2       1 <0>        -0.1559
     25 C21         4.7911    0.7896    7.1235 C.2       1 <0>        -0.1899
     26 C22         5.7425   -1.5580    2.9129 C.2       1 <0>         0.4804
     27 O1          5.3275   -2.3446    3.7307 O.2       1 <0>        -0.4947
     28 O2          7.0557   -1.2883    2.8471 O.3       1 <0>        -0.3536
     29 C23         7.9047   -1.9674    3.7745 C.3       1 <0>         0.0326
     30 O3          5.0286   -2.8697    0.6995 O.2       1 <0>        -0.4391
     31 H5          0.8409    2.2609    0.5746 H         1 <0>         0.0619
     32 H6         -0.9374    2.2243    0.5059 H         1 <0>         0.0537
     33 H7         -0.1152    2.8116    1.9713 H         1 <0>         0.0528
     34 H8         -0.6466   -1.2908    1.0667 H         1 <0>         0.0605
     35 H9         -1.0831    0.0086   -0.0525 H         1 <0>         0.0627
     36 H10         0.7642   -1.4129   -0.9090 H         1 <0>         0.0627
     37 H11         1.2630    0.2735   -0.7289 H         1 <0>         0.0707
     38 H12         3.0683   -2.2932   -0.7302 H         1 <0>         0.0954
     39 H13         5.2606    0.0140    1.5629 H         1 <0>         0.1362
     40 H14         0.3803   -1.5520    3.0558 H         1 <0>         0.0648
     41 H15         1.6882   -0.9970    4.1280 H         1 <0>         0.0710
     42 H16         0.1627    0.7445    5.0543 H         1 <0>         0.0669
     43 H17        -1.1455    0.1312    4.0147 H         1 <0>         0.0718
     44 H18        -0.1771   -1.9446    7.4795 H         1 <0>         0.0950
     45 H19         0.8071   -0.4442    6.9511 H         1 <0>         0.0957
     46 H20        -1.3163   -2.8080    4.4192 H         1 <0>         0.0649
     47 H21        -1.7116   -2.8993    6.1523 H         1 <0>         0.0598
     48 H22        -2.5694   -1.7451    5.1034 H         1 <0>         0.0644
     49 H23         2.3124    1.5292    0.2497 H         1 <0>         0.0704
     50 H24         3.0645    2.0640    1.7718 H         1 <0>         0.0641
     51 H25         3.9659    1.0104    0.6558 H         1 <0>         0.0565
     52 H26         4.3764    1.4105    3.2109 H         1 <0>         0.0730
     53 H27         2.9630    0.9761    4.2017 H         1 <0>         0.0820
     54 H28         4.3357   -0.8534    5.2551 H         1 <0>         0.0779
     55 H29         5.7485   -0.2588    4.3503 H         1 <0>         0.0648
     56 H30         5.4220    2.0382    5.5936 H         1 <0>         0.1075
     57 H31         4.4108   -0.1834    7.3974 H         1 <0>         0.0957
     58 H32         4.9649    1.5354    7.8850 H         1 <0>         0.0970
     59 H33         7.6049   -1.7171    4.7921 H         1 <0>         0.0621
     60 H34         7.8189   -3.0437    3.6248 H         1 <0>         0.0628
     61 H35         8.9379   -1.6595    3.6140 H         1 <0>         0.1037
     62 H36         3.6140   -0.6065   -0.7178 H         1 <0>         0.1081
@<TRIPOS>BOND
     1    1    2 1
     2    1   31 1
     3    1   32 1
     4    1   33 1
     5    2    3 1
     6    2   14 1
     7    2    4 1
     8    4    5 1
     9    4   34 1
    10    4   35 1
    11    5    6 1
    12    5   36 1
    13    5   37 1
    14    6    7 1
    15    6   13 1
    16    6    8 1
    17    8    9 1
    18    8   38 1
    19    8   62 1
    20    9   10 1
    21    9   30 2
    22   10   11 1
    23   10   26 1
    24   10   39 1
    25   11   12 1
    26   11   13 1
    27   11   22 1
    28   13   14 1
    29   13   21 1
    30   14   15 1
    31   14   16 1
    32   16   17 1
    33   16   40 1
    34   16   41 1
    35   17   18 1
    36   17   42 1
    37   17   43 1
    38   18   19 2
    39   18   20 1
    40   19   44 1
    41   19   45 1
    42   20   46 1
    43   20   47 1
    44   20   48 1
    45   21   49 1
    46   21   50 1
    47   21   51 1
    48   22   23 1
    49   22   52 1
    50   22   53 1
    51   23   24 1
    52   23   54 1
    53   23   55 1
    54   24   25 2
    55   24   56 1
    56   25   57 1
    57   25   58 1
    58   26   27 2
    59   26   28 1
    60   28   29 1
    61   29   59 1
    62   29   60 1
    63   29   61 1
@<TRIPOS>MOLECULE
ZINC63928099
   44    45     0     0     0
SMALL
USER_CHARGES

@<TRIPOS>ATOM
      1 C1          2.1894    1.4823    0.5587 C.3       1 <0>        -0.1587
      2 C2          2.1881   -0.0218    0.8395 C.3       1 <0>        -0.1177
      3 C3          0.7455   -0.5168    0.9602 C.3       1 <0>        -0.1183
      4 C4          0.7395   -2.0398    1.1071 C.3       1 <0>        -0.5581
      5 C5          1.4295   -2.4285    2.4162 C.3       1 <0>        -0.1071
      6 C6          1.5347   -3.9524    2.5042 C.3       1 <0>        -0.1559
      7 C7          2.2247   -4.3412    3.8133 C.3       1 <0>        -0.1525
      8 S1         -0.9726   -2.6388    1.1249 S.o2      1 <0>         2.4127
      9 O1         -0.9551   -4.0538    0.9956 O.2       1 <0>        -0.9098
     10 O2         -1.6418   -2.0545    2.2339 O.2       1 <0>        -0.9145
     11 C8         -1.6603   -1.9320   -0.3977 C.3       1 <0>        -0.5452
     12 C9         -3.0627   -2.4449   -0.6009 C.2       1 <0>         0.2591
     13 N1         -3.3925   -3.5531   -1.2678 N.2       1 <0>        -0.5231
     14 C10        -4.6971   -3.7121   -1.2574 C.2       1 <0>         0.3461
     15 O3         -5.2348   -2.6890   -0.5706 O.3       1 <0>        -0.0857
     16 N2         -4.1466   -1.8805   -0.1489 N.2       1 <0>        -0.3126
     17 C11        -5.4421   -4.8205   -1.8900 C.ar      1 <0>        -0.0514
     18 C12        -4.7558   -5.8266   -2.5724 C.ar      1 <0>        -0.0373
     19 C13        -5.4566   -6.8585   -3.1608 C.ar      1 <0>        -0.1163
     20 C14        -6.8384   -6.8976   -3.0760 C.ar      1 <0>        -0.0006
     21 C15        -7.5248   -5.9023   -2.4004 C.ar      1 <0>        -0.1152
     22 C16        -6.8346   -4.8687   -1.8026 C.ar      1 <0>        -0.0544
     23 Cl1        -7.7137   -8.1991   -3.8201 Cl        1 <0>        -0.0505
     24 H1          1.6931    2.0049    1.3764 H         1 <0>         0.0578
     25 H2          3.2172    1.8350    0.4728 H         1 <0>         0.0591
     26 H3          1.6588    1.6784   -0.3730 H         1 <0>         0.0559
     27 H4          2.6844   -0.5444    0.0218 H         1 <0>         0.0679
     28 H5          2.7187   -0.2179    1.7712 H         1 <0>         0.0713
     29 H6          0.2785   -0.0655    1.8356 H         1 <0>         0.0890
     30 H7          0.1889   -0.2359    0.0661 H         1 <0>         0.0762
     31 H8          1.2725   -2.4878    0.2685 H         1 <0>         0.1456
     32 H9          2.4284   -1.9932    2.4437 H         1 <0>         0.0971
     33 H10         0.8471   -2.0553    3.2586 H         1 <0>         0.0834
     34 H11         0.5358   -4.3877    2.4767 H         1 <0>         0.0775
     35 H12         2.1170   -4.3256    1.6618 H         1 <0>         0.0747
     36 H13         2.2996   -5.4268    3.8760 H         1 <0>         0.0608
     37 H14         3.2235   -3.9058    3.8408 H         1 <0>         0.0572
     38 H15         1.6423   -3.9679    4.6557 H         1 <0>         0.0572
     39 H16        -1.6791   -0.8451   -0.3175 H         1 <0>         0.1644
     40 H17        -1.0405   -2.2231   -1.2457 H         1 <0>         0.1701
     41 H18        -3.6783   -5.7968   -2.6398 H         1 <0>         0.1547
     42 H19        -4.9268   -7.6374   -3.6890 H         1 <0>         0.1496
     43 H20        -8.6024   -5.9380   -2.3379 H         1 <0>         0.1489
     44 H21        -7.3705   -4.0956   -1.2722 H         1 <0>         0.1487
@<TRIPOS>BOND
     1    1    2 1
     2    1   24 1
     3    1   25 1
     4    1   26 1
     5    2    3 1
     6    2   27 1
     7    2   28 1
     8    3    4 1
     9    3   29 1
    10    3   30 1
    11    4    5 1
    12    4    8 1
    13    4   31 1
    14    5    6 1
    15    5   32 1
    16    5   33 1
    17    6    7 1
    18    6   34 1
    19    6   35 1
    20    7   36 1
    21    7   37 1
    22    7   38 1
    23    8    9 2
    24    8   10 2
    25    8   11 1
    26   11   12 1
    27   11   39 1
    28   11   40 1
    29   12   16 2
    30   12   13 1
    31   13   14 2
    32   14   15 1
    33   14   17 1
    34   15   16 1
    35   17   22 ar
    36   17   18 ar
    37   18   19 ar
    38   18   41 1
    39   19   20 ar
    40   19   42 1
    41   20   21 ar
    42   20   23 1
    43   21   22 ar
    44   21   43 1
    45   22   44 1
@<TRIPOS>MOLECULE
ZINC19231738
   48    48     0     0     0
SMALL
USER_CHARGES
7-methyl-N-[[4-(trifluoromethyl)phenyl]methyl]octan-1-amine
@<TRIPOS>ATOM
      1 C1         -0.0161  -10.6642   -5.3658 C.3       1 <0>        -0.1520
      2 C2          1.2780  -10.1176   -5.9720 C.3       1 <0>        -0.0984
      3 C3          1.3956  -10.5805   -7.4255 C.3       1 <0>        -0.1526
      4 C4          1.2576   -8.5885   -5.9238 C.3       1 <0>        -0.1168
      5 C5          1.2657   -8.1241   -4.4660 C.3       1 <0>        -0.1240
      6 C6          1.2454   -6.5950   -4.4178 C.3       1 <0>        -0.1219
      7 C7          1.2535   -6.1305   -2.9600 C.3       1 <0>        -0.1193
      8 C8          1.2332   -4.6014   -2.9118 C.3       1 <0>        -0.1490
      9 C9          1.2413   -4.1370   -1.4540 C.3       1 <0>        -0.0049
     10 N1          1.2217   -2.6688   -1.4077 N.4       1 <0>        -0.5391
     11 C10         1.2289   -2.1857   -0.0205 C.3       1 <0>         0.0456
     12 C11         1.2084   -0.6789   -0.0132 C.ar      1 <0>        -0.1327
     13 C12         0.0021   -0.0041    0.0020 C.ar      1 <0>        -0.0938
     14 C13        -0.0167    1.3781    0.0096 C.ar      1 <0>        -0.0652
     15 C14         1.1709    2.0855    0.0021 C.ar      1 <0>        -0.1459
     16 C15         2.3773    1.4107   -0.0145 C.ar      1 <0>        -0.0653
     17 C16         2.3961    0.0285   -0.0212 C.ar      1 <0>        -0.0939
     18 C17         1.1505    3.5924    0.0099 C.3       1 <0>         0.5031
     19 F1          1.1565    4.0520    1.3313 F         1 <0>        -0.1680
     20 F2          2.2801    4.0775   -0.6577 F         1 <0>        -0.1705
     21 F3         -0.0041    4.0464   -0.6365 F         1 <0>        -0.1705
     22 H1         -0.1006  -10.3314   -4.3208 H         1 <0>         0.0544
     23 H2         -0.0015  -11.7636   -5.4005 H         1 <0>         0.0562
     24 H3         -0.8765  -10.2906   -5.9404 H         1 <0>         0.0546
     25 H4          2.1385  -10.4912   -5.3975 H         1 <0>         0.0691
     26 H5          2.3260  -10.1875   -7.8613 H         1 <0>         0.0548
     27 H6          0.5352  -10.2069   -8.0000 H         1 <0>         0.0552
     28 H7          1.4102  -11.6799   -7.4601 H         1 <0>         0.0572
     29 H8          2.1454   -8.1935   -6.4394 H         1 <0>         0.0620
     30 H9          0.3494   -8.2180   -6.4216 H         1 <0>         0.0626
     31 H10         0.3779   -8.5190   -3.9504 H         1 <0>         0.0670
     32 H11         2.1739   -8.4946   -3.9682 H         1 <0>         0.0631
     33 H12         2.1332   -6.2001   -4.9334 H         1 <0>         0.0655
     34 H13         0.3372   -6.2245   -4.9157 H         1 <0>         0.0657
     35 H14         0.3657   -6.5254   -2.4444 H         1 <0>         0.0735
     36 H15         2.1617   -6.5010   -2.4621 H         1 <0>         0.0736
     37 H16         2.1210   -4.2065   -3.4274 H         1 <0>         0.0868
     38 H17         0.3250   -4.2309   -3.4097 H         1 <0>         0.0868
     39 H18         0.3535   -4.5320   -0.9384 H         1 <0>         0.1294
     40 H19         2.1495   -4.5075   -0.9562 H         1 <0>         0.1294
     41 H20         2.1095   -2.2738   -1.9233 H         1 <0>         0.4499
     42 H21         0.3411   -2.5670    0.5052 H         1 <0>         0.1392
     43 H22         2.1371   -2.5425    0.4873 H         1 <0>         0.1392
     44 H23        -0.9258   -0.5567    0.0083 H         1 <0>         0.1450
     45 H24        -0.9592    1.9054    0.0170 H         1 <0>         0.1502
     46 H25         3.3052    1.9634   -0.0205 H         1 <0>         0.1502
     47 H26         3.3386   -0.4987   -0.0324 H         1 <0>         0.1451
     48 H27         0.3134   -2.2983   -1.9055 H         1 <0>         0.4499
@<TRIPOS>BOND
     1    1    2 1
     2    1   22 1
     3    1   23 1
     4    1   24 1
     5    2    3 1
     6    2    4 1
     7    2   25 1
     8    3   26 1
     9    3   27 1
    10    3   28 1
    11    4    5 1
    12    4   29 1
    13    4   30 1
    14    5    6 1
    15    5   31 1
    16    5   32 1
    17    6    7 1
    18    6   33 1
    19    6   34 1
    20    7    8 1
    21    7   35 1
    22    7   36 1
    23    8    9 1
    24    8   37 1
    25    8   38 1
    26    9   10 1
    27    9   39 1
    28    9   40 1
    29   10   11 1
    30   10   41 1
    31   10   48 1
    32   11   12 1
    33   11   42 1
    34   11   43 1
    35   12   17 ar
    36   12   13 ar
    37   13   14 ar
    38   13   44 1
    39   14   15 ar
    40   14   45 1
    41   15   16 ar
    42   15   18 1
    43   16   17 ar
    44   16   46 1
    45   17   47 1
    46   18   19 1
    47   18   20 1
    48   18   21 1
@<TRIPOS>MOLECULE
ZINC37084604
   49    49     0     0     0
SMALL
USER_CHARGES

@<TRIPOS>ATOM
      1 C1         -0.3016    0.7977    0.5410 C.3       1 <0>        -0.1601
      2 C2          0.0561   -0.6832    0.3997 C.3       1 <0>        -0.1206
      3 C3          0.6697   -0.9302   -0.9799 C.3       1 <0>        -0.1020
      4 H1          1.5188   -0.2623   -1.1248 H         1 <0>         0.0604
      5 C4         -0.3800   -0.6625   -2.0604 C.3       1 <0>        -0.1637
      6 C5          1.1413   -2.3826   -1.0757 C.3       1 <0>        -0.1444
      7 C6          1.8659   -2.5969   -2.4061 C.3       1 <0>         0.0166
      8 H2          1.2149   -2.2962   -3.2270 H         1 <0>         0.1454
      9 C7          2.2277   -4.0758   -2.5574 C.3       1 <0>        -0.1454
     10 C8          0.9470   -4.9050   -2.6713 C.3       1 <0>        -0.1566
     11 N1          3.0918   -1.7878   -2.4318 N.4       1 <0>        -0.5076
     12 C9          3.7214   -1.8947   -3.7547 C.3       1 <0>         0.0837
     13 H3          3.8728   -2.9456   -4.0012 H         1 <0>         0.1511
     14 C10         2.8144   -1.2500   -4.8048 C.3       1 <0>        -0.1760
     15 C11         5.0515   -1.1864   -3.7367 C.ar      1 <0>        -0.1546
     16 C12         5.3202   -0.2448   -2.7619 C.ar      1 <0>        -0.1021
     17 C13         6.5400    0.4057   -2.7452 C.ar      1 <0>        -0.1215
     18 C14         7.4941    0.1157   -3.7032 C.ar      1 <0>        -0.0562
     19 C15         7.2305   -0.8251   -4.6795 C.ar      1 <0>        -0.1750
     20 C16         6.0090   -1.4832   -4.6953 C.ar      1 <0>         0.1379
     21 O1          5.7493   -2.4133   -5.6515 O.3       1 <0>        -0.3249
     22 C17         6.7817   -2.6679   -6.6063 C.3       1 <0>         0.4139
     23 F1          7.0772   -1.4890   -7.2991 F         1 <0>        -0.1903
     24 F2          7.9283   -3.1196   -5.9441 F         1 <0>        -0.1909
     25 H4          0.5993    1.4012    0.4307 H         1 <0>         0.0541
     26 H5         -1.0202    1.0731   -0.2309 H         1 <0>         0.0605
     27 H6         -0.7388    0.9737    1.5238 H         1 <0>         0.0625
     28 H7          0.7747   -0.9587    1.1716 H         1 <0>         0.0672
     29 H8         -0.8448   -1.2867    0.5100 H         1 <0>         0.0723
     30 H9         -0.7159    0.3722   -1.9921 H         1 <0>         0.0725
     31 H10         0.0572   -0.8385   -3.0432 H         1 <0>         0.0515
     32 H11        -1.2291   -1.3305   -1.9155 H         1 <0>         0.0695
     33 H12         1.8219   -2.5987   -0.2523 H         1 <0>         0.0903
     34 H13         0.2802   -3.0486   -1.0197 H         1 <0>         0.1179
     35 H14         2.8301   -4.2124   -3.4555 H         1 <0>         0.0868
     36 H15         2.7954   -4.4019   -1.6860 H         1 <0>         0.0890
     37 H16         0.3178   -4.7233   -1.8000 H         1 <0>         0.0697
     38 H17         0.4081   -4.6190   -3.5746 H         1 <0>         0.0668
     39 H18         1.2026   -5.9635   -2.7205 H         1 <0>         0.0776
     40 H19         2.8620   -0.8231   -2.2456 H         1 <0>         0.4227
     41 H20         3.2816   -1.3294   -5.7864 H         1 <0>         0.1086
     42 H21         1.8524   -1.7624   -4.8178 H         1 <0>         0.0848
     43 H22         2.6631   -0.1991   -4.5583 H         1 <0>         0.0829
     44 H23         4.5767   -0.0165   -2.0127 H         1 <0>         0.1246
     45 H24         6.7479    1.1419   -1.9828 H         1 <0>         0.1419
     46 H25         8.4461    0.6255   -3.6882 H         1 <0>         0.1439
     47 H26         7.9760   -1.0513   -5.4275 H         1 <0>         0.1469
     48 H27         6.4455   -3.4288   -7.3107 H         1 <0>         0.1915
     49 H28         3.7311   -2.1233   -1.7269 H         1 <0>         0.4269
@<TRIPOS>BOND
     1    1    2 1
     2    1   25 1
     3    1   26 1
     4    1   27 1
     5    2    3 1
     6    2   28 1
     7    2   29 1
     8    3    4 1
     9    3    5 1
    10    3    6 1
    11    5   30 1
    12    5   31 1
    13    5   32 1
    14    6    7 1
    15    6   33 1
    16    6   34 1
    17    7    8 1
    18    7    9 1
    19    7   11 1
    20    9   10 1
    21    9   35 1
    22    9   36 1
    23   10   37 1
    24   10   38 1
    25   10   39 1
    26   11   12 1
    27   11   40 1
    28   11   49 1
    29   12   13 1
    30   12   14 1
    31   12   15 1
    32   14   41 1
    33   14   42 1
    34   14   43 1
    35   15   20 ar
    36   15   16 ar
    37   16   17 ar
    38   16   44 1
    39   17   18 ar
    40   17   45 1
    41   18   19 ar
    42   18   46 1
    43   19   20 ar
    44   19   47 1
    45   20   21 1
    46   21   22 1
    47   22   23 1
    48   22   24 1
    49   22   48 1
@<TRIPOS>MOLECULE
ZINC40406643
   58    60     0     0     0
SMALL
USER_CHARGES

@<TRIPOS>ATOM
      1 C1         -4.5066    1.7424    1.3670 C.3       1 <0>        -0.1588
      2 C2         -4.4361    0.2524    1.7075 C.3       1 <0>        -0.1210
      3 C3         -3.6652   -0.4854    0.6110 C.3       1 <0>        -0.1487
      4 C4         -3.5948   -1.9754    0.9516 C.3       1 <0>        -0.0163
      5 N1         -2.8547   -2.6838   -0.1012 N.4       1 <0>        -0.3843
      6 C5         -1.4602   -2.2219   -0.1149 C.3       1 <0>        -0.0158
      7 C6         -0.7313   -2.8363   -1.3116 C.3       1 <0>        -0.1492
      8 C7          0.7331   -2.3930   -1.2992 C.3       1 <0>        -0.1210
      9 C8          1.4620   -3.0073   -2.4960 C.3       1 <0>        -0.1587
     10 C9         -2.8895   -4.1284    0.1632 C.3       1 <0>        -0.0090
     11 C10        -4.3289   -4.6337    0.0467 C.3       1 <0>        -0.1691
     12 C11        -4.3508   -6.1543    0.2144 C.3       1 <0>         0.1197
     13 N2         -5.7291   -6.6381    0.1028 N.pl3     1 <0>        -0.4899
     14 C12        -6.6353   -6.7810    1.1376 C.ar      1 <0>         0.0558
     15 C13        -6.5781   -6.5456    2.5037 C.ar      1 <0>        -0.1027
     16 C14        -7.6828   -6.7948    3.2906 C.ar      1 <0>        -0.0808
     17 C15        -8.8547   -7.2806    2.7253 C.ar      1 <0>        -0.0398
     18 C16        -8.9303   -7.5208    1.3716 C.ar      1 <0>        -0.0463
     19 C17        -7.8187   -7.2728    0.5589 C.ar      1 <0>         0.0658
     20 N3         -7.5913   -7.4060   -0.7701 N.2       1 <0>        -0.4528
     21 C18        -6.3641   -7.0285   -1.0481 C.2       1 <0>         0.3676
     22 C19        -5.7614   -7.0287   -2.3892 C.2       1 <0>         0.0120
     23 C20        -6.2568   -7.6630   -3.4895 C.2       1 <0>        -0.1141
     24 C21        -5.3665   -7.3967   -4.5453 C.2       1 <0>        -0.2052
     25 C22        -4.3810   -6.6217   -4.0468 C.2       1 <0>        -0.0167
     26 O1         -4.6256   -6.3968   -2.7470 O.3       1 <0>        -0.1829
     27 Cl1       -10.2344   -7.5879    3.7331 Cl        1 <0>        -0.0477
     28 H1         -5.0557    2.2681    2.1481 H         1 <0>         0.0676
     29 H2         -3.4969    2.1473    1.2973 H         1 <0>         0.0592
     30 H3         -5.0172    1.8733    0.4129 H         1 <0>         0.0594
     31 H4         -3.9255    0.1215    2.6616 H         1 <0>         0.0734
     32 H5         -5.4457   -0.1525    1.7772 H         1 <0>         0.0731
     33 H6         -4.1759   -0.3545   -0.3430 H         1 <0>         0.0863
     34 H7         -2.6556   -0.0805    0.5414 H         1 <0>         0.0875
     35 H8         -3.0842   -2.1063    1.9056 H         1 <0>         0.1317
     36 H9         -4.6044   -2.3803    1.0212 H         1 <0>         0.1307
     37 H10        -1.4382   -1.1351   -0.1949 H         1 <0>         0.1348
     38 H11        -0.9669   -2.5284    0.8075 H         1 <0>         0.1312
     39 H12        -0.7823   -3.9233   -1.2493 H         1 <0>         0.0858
     40 H13        -1.2041   -2.5027   -2.2354 H         1 <0>         0.0871
     41 H14         0.7841   -1.3059   -1.3616 H         1 <0>         0.0736
     42 H15         1.2059   -2.7265   -0.3755 H         1 <0>         0.0732
     43 H16         2.5052   -2.6915   -2.4871 H         1 <0>         0.0674
     44 H17         1.4109   -4.0943   -2.4336 H         1 <0>         0.0588
     45 H18         0.9892   -2.6737   -3.4197 H         1 <0>         0.0594
     46 H19        -2.2628   -4.6459   -0.5632 H         1 <0>         0.1378
     47 H20        -2.5164   -4.3228    1.1687 H         1 <0>         0.1352
     48 H21        -4.9395   -4.1736    0.8236 H         1 <0>         0.0960
     49 H22        -4.7282   -4.3704   -0.9328 H         1 <0>         0.0963
     50 H23        -3.7402   -6.6144   -0.5625 H         1 <0>         0.1075
     51 H24        -3.9515   -6.4176    1.1939 H         1 <0>         0.1042
     52 H25        -5.6700   -6.1682    2.9501 H         1 <0>         0.1314
     53 H26        -7.6363   -6.6113    4.3539 H         1 <0>         0.1468
     54 H27        -9.8445   -7.8992    0.9386 H         1 <0>         0.1481
     55 H28        -7.1582   -8.2557   -3.5405 H         1 <0>         0.1656
     56 H29        -5.4547   -7.7471   -5.5631 H         1 <0>         0.1629
     57 H30        -3.5372   -6.2413   -4.6033 H         1 <0>         0.2148
     58 H31        -3.2802   -2.4954   -0.9965 H         1 <0>         0.4233
@<TRIPOS>BOND
     1    1    2 1
     2    1   28 1
     3    1   29 1
     4    1   30 1
     5    2    3 1
     6    2   31 1
     7    2   32 1
     8    3    4 1
     9    3   33 1
    10    3   34 1
    11    4    5 1
    12    4   35 1
    13    4   36 1
    14    5    6 1
    15    5   10 1
    16    5   58 1
    17    6    7 1
    18    6   37 1
    19    6   38 1
    20    7    8 1
    21    7   39 1
    22    7   40 1
    23    8    9 1
    24    8   41 1
    25    8   42 1
    26    9   43 1
    27    9   44 1
    28    9   45 1
    29   10   11 1
    30   10   46 1
    31   10   47 1
    32   11   12 1
    33   11   48 1
    34   11   49 1
    35   12   13 1
    36   12   50 1
    37   12   51 1
    38   13   21 1
    39   13   14 1
    40   14   19 ar
    41   14   15 ar
    42   15   16 ar
    43   15   52 1
    44   16   17 ar
    45   16   53 1
    46   17   18 ar
    47   17   27 1
    48   18   19 ar
    49   18   54 1
    50   19   20 1
    51   20   21 2
    52   21   22 1
    53   22   26 1
    54   22   23 2
    55   23   24 1
    56   23   55 1
    57   24   25 2
    58   24   56 1
    59   25   26 1
    60   25   57 1
@<TRIPOS>MOLECULE
ZINC50501956
   44    45     0     0     0
SMALL
USER_CHARGES

@<TRIPOS>ATOM
      1 C1         -0.5700    1.6813   -0.1552 C.3       1 <0>        -0.0478
      2 N1         -0.3225    0.2344   -0.2115 N.4       1 <0>        -0.5123
      3 C2         -1.6047   -0.4825   -0.2006 C.3       1 <0>        -0.0243
      4 C3         -1.3462   -1.9888   -0.1300 C.3       1 <0>         0.1153
      5 H1         -0.7612   -2.2157    0.7613 H         1 <0>         0.0979
      6 C4         -2.6615   -2.7218   -0.0676 C.ar      1 <0>        -0.1202
      7 C5         -3.3358   -3.0317   -1.2339 C.ar      1 <0>        -0.0703
      8 C6         -4.5421   -3.7039   -1.1773 C.ar      1 <0>        -0.1104
      9 C7         -5.0748   -4.0667    0.0470 C.ar      1 <0>        -0.0168
     10 C8         -4.3994   -3.7564    1.2139 C.ar      1 <0>        -0.1092
     11 C9         -3.1904   -3.0891    1.1557 C.ar      1 <0>        -0.0902
     12 Cl1        -6.5901   -4.9106    0.1190 Cl        1 <0>        -0.0482
     13 O1         -0.6246   -2.4033   -1.2917 O.3       1 <0>        -0.3700
     14 C10         0.7486   -2.7114   -1.0438 C.3       1 <0>         0.0514
     15 C11         1.4012   -3.2077   -2.3355 C.3       1 <0>        -0.1163
     16 C12         2.8714   -3.5376   -2.0701 C.3       1 <0>        -0.0757
     17 C13         3.5142   -4.0264   -3.3425 C.ar      1 <0>        -0.0935
     18 C14         3.5015   -5.3741   -3.6498 C.ar      1 <0>        -0.1153
     19 C15         4.0911   -5.8225   -4.8169 C.ar      1 <0>        -0.1149
     20 C16         4.6931   -4.9231   -5.6769 C.ar      1 <0>        -0.1170
     21 C17         4.7050   -3.5753   -5.3701 C.ar      1 <0>        -0.1169
     22 C18         4.1116   -3.1264   -4.2050 C.ar      1 <0>        -0.1178
     23 H2          0.3814    2.2132   -0.1633 H         1 <0>         0.1284
     24 H3         -1.1620    1.9825   -1.0194 H         1 <0>         0.1260
     25 H4         -1.1130    1.9217    0.7588 H         1 <0>         0.1258
     26 H5          0.1801    0.0118   -1.0576 H         1 <0>         0.4319
     27 H6         -2.1869   -0.1727    0.6672 H         1 <0>         0.1461
     28 H7         -2.1581   -0.2511   -1.1108 H         1 <0>         0.1440
     29 H8         -2.9201   -2.7481   -2.1895 H         1 <0>         0.1402
     30 H9         -5.0691   -3.9456   -2.0885 H         1 <0>         0.1418
     31 H10        -4.8148   -4.0391    2.1699 H         1 <0>         0.1425
     32 H11        -2.6608   -2.8510    2.0663 H         1 <0>         0.1349
     33 H12         1.2648   -1.8164   -0.6965 H         1 <0>         0.0399
     34 H13         0.8149   -3.4879   -0.2816 H         1 <0>         0.0704
     35 H14         0.8850   -4.1027   -2.6828 H         1 <0>         0.0829
     36 H15         1.3349   -2.4312   -3.0977 H         1 <0>         0.0763
     37 H16         3.3876   -2.6426   -1.7228 H         1 <0>         0.0728
     38 H17         2.9377   -4.3140   -1.3080 H         1 <0>         0.0770
     39 H18         3.0312   -6.0768   -2.9778 H         1 <0>         0.1215
     40 H19         4.0818   -6.8755   -5.0566 H         1 <0>         0.1253
     41 H20         5.1544   -5.2735   -6.5884 H         1 <0>         0.1251
     42 H21         5.1756   -2.8727   -6.0418 H         1 <0>         0.1242
     43 H22         4.1177   -2.0730   -3.9671 H         1 <0>         0.1185
     44 H23         0.2255   -0.0445    0.5885 H         1 <0>         0.4267
@<TRIPOS>BOND
     1    1    2 1
     2    1   23 1
     3    1   24 1
     4    1   25 1
     5    2    3 1
     6    2   26 1
     7    2   44 1
     8    3    4 1
     9    3   27 1
    10    3   28 1
    11    4    5 1
    12    4    6 1
    13    4   13 1
    14    6   11 ar
    15    6    7 ar
    16    7    8 ar
    17    7   29 1
    18    8    9 ar
    19    8   30 1
    20    9   10 ar
    21    9   12 1
    22   10   11 ar
    23   10   31 1
    24   11   32 1
    25   13   14 1
    26   14   15 1
    27   14   33 1
    28   14   34 1
    29   15   16 1
    30   15   35 1
    31   15   36 1
    32   16   17 1
    33   16   37 1
    34   16   38 1
    35   17   22 ar
    36   17   18 ar
    37   18   19 ar
    38   18   39 1
    39   19   20 ar
    40   19   40 1
    41   20   21 ar
    42   20   41 1
    43   21   22 ar
    44   21   42 1
    45   22   43 1
@<TRIPOS>MOLECULE
ZINC62341773
   49    50     0     0     0
SMALL
USER_CHARGES

@<TRIPOS>ATOM
      1 C1          1.8777   -2.1390    2.4333 C.3       1 <0>        -0.1591
      2 C2          1.0344   -1.7468    1.2185 C.3       1 <0>        -0.1202
      3 C3          1.6607   -2.3336   -0.0481 C.3       1 <0>        -0.1511
      4 C4          0.8174   -1.9414   -1.2629 C.3       1 <0>        -0.0147
      5 N1          1.4873   -2.3920   -2.4902 N.4       1 <0>        -0.3907
      6 C5          0.7507   -1.8962   -3.6605 C.3       1 <0>        -0.0199
      7 C6          0.8372   -0.3694   -3.7082 C.3       1 <0>        -0.1874
      8 C7          1.5210   -3.8604   -2.5188 C.3       1 <0>        -0.0161
      9 C8          2.3266   -4.3285   -3.7323 C.3       1 <0>         0.0100
     10 H1          1.8584   -3.9580   -4.6442 H         1 <0>         0.1309
     11 C9          2.3612   -5.8348   -3.7617 C.ar      1 <0>        -0.1297
     12 C10         3.0002   -6.5292   -2.7504 C.ar      1 <0>        -0.0879
     13 C11         3.0349   -7.9088   -2.7723 C.ar      1 <0>        -0.1105
     14 C12         2.4246   -8.6020   -3.8156 C.ar      1 <0>        -0.0050
     15 C13         1.7822   -7.8974   -4.8316 C.ar      1 <0>        -0.1109
     16 C14         1.7488   -6.5180   -4.7968 C.ar      1 <0>        -0.0854
     17 C15         2.4590  -10.0852   -3.8447 C.ar      1 <0>        -0.0701
     18 C16         3.0968  -10.7900   -2.8259 C.ar      1 <0>        -0.1032
     19 C17         3.1253  -12.1695   -2.8578 C.ar      1 <0>        -0.1174
     20 C18         2.5228  -12.8524   -3.8989 C.ar      1 <0>        -0.1049
     21 C19         1.8886  -12.1578   -4.9131 C.ar      1 <0>        -0.1172
     22 C20         1.8487  -10.7784   -4.8880 C.ar      1 <0>        -0.1030
     23 Cl1         4.0093   -3.6909   -3.6188 Cl        1 <0>        -0.1371
     24 H2          1.9134   -3.2253    2.5154 H         1 <0>         0.0592
     25 H3          2.8890   -1.7501    2.3144 H         1 <0>         0.0595
     26 H4          1.4315   -1.7209    3.3357 H         1 <0>         0.0673
     27 H5          0.0230   -2.1356    1.3374 H         1 <0>         0.0738
     28 H6          0.9986   -0.6605    1.1364 H         1 <0>         0.0737
     29 H7          2.6720   -1.9448   -0.1670 H         1 <0>         0.0868
     30 H8          1.6965   -3.4199    0.0340 H         1 <0>         0.0869
     31 H9         -0.1636   -2.4111   -1.1911 H         1 <0>         0.1329
     32 H10         0.7005   -0.8580   -1.2896 H         1 <0>         0.1365
     33 H11         1.1871   -2.3135   -4.5680 H         1 <0>         0.1286
     34 H12        -0.2939   -2.1988   -3.5872 H         1 <0>         0.1345
     35 H13         1.8832   -0.0638   -3.6818 H         1 <0>         0.0810
     36 H14         0.3762   -0.0080   -4.6274 H         1 <0>         0.1089
     37 H15         0.3140    0.0512   -2.8495 H         1 <0>         0.0827
     38 H16         1.9892   -4.2309   -1.6069 H         1 <0>         0.1452
     39 H17         0.5037   -4.2459   -2.5874 H         1 <0>         0.1528
     40 H18         3.4733   -5.9909   -1.9424 H         1 <0>         0.1275
     41 H19         3.5345   -8.4500   -1.9824 H         1 <0>         0.1352
     42 H20         1.3079   -8.4297   -5.6428 H         1 <0>         0.1362
     43 H21         1.2471   -5.9710   -5.5813 H         1 <0>         0.1304
     44 H22         3.5682  -10.2578   -2.0129 H         1 <0>         0.1258
     45 H23         3.6194  -12.7168   -2.0686 H         1 <0>         0.1291
     46 H24         2.5478  -13.9319   -3.9201 H         1 <0>         0.1285
     47 H25         1.4201  -12.6960   -5.7238 H         1 <0>         0.1292
     48 H26         1.3494  -10.2372   -5.6781 H         1 <0>         0.1261
     49 H27         2.4303   -2.0336   -2.5096 H         1 <0>         0.4221
@<TRIPOS>BOND
     1    1    2 1
     2    1   24 1
     3    1   25 1
     4    1   26 1
     5    2    3 1
     6    2   27 1
     7    2   28 1
     8    3    4 1
     9    3   29 1
    10    3   30 1
    11    4    5 1
    12    4   31 1
    13    4   32 1
    14    5    6 1
    15    5    8 1
    16    5   49 1
    17    6    7 1
    18    6   33 1
    19    6   34 1
    20    7   35 1
    21    7   36 1
    22    7   37 1
    23    8    9 1
    24    8   38 1
    25    8   39 1
    26    9   10 1
    27    9   11 1
    28    9   23 1
    29   11   16 ar
    30   11   12 ar
    31   12   13 ar
    32   12   40 1
    33   13   14 ar
    34   13   41 1
    35   14   15 ar
    36   14   17 1
    37   15   16 ar
    38   15   42 1
    39   16   43 1
    40   17   22 ar
    41   17   18 ar
    42   18   19 ar
    43   18   44 1
    44   19   20 ar
    45   19   45 1
    46   20   21 ar
    47   20   46 1
    48   21   22 ar
    49   21   47 1
    50   22   48 1
@<TRIPOS>MOLECULE
ZINC27666486
   60    62     0     0     0
SMALL
USER_CHARGES
(3R)-3-[(2S,4R)-2-ethyl-2-methyl-tetrahydropyran-4-yl]-N-[(4-fluorophenyl)methyl]-3-phenyl-propan-1-amine
@<TRIPOS>ATOM
      1 C1         -1.2701   -0.9240   -2.4903 C.3       1 <0>        -0.1564
      2 C2         -2.0702   -0.4300   -1.2833 C.3       1 <0>        -0.1495
      3 C3         -2.0534    1.0996   -1.2518 C.3       1 <0>         0.1161
      4 C4         -2.8527    1.5941   -0.0433 C.3       1 <0>        -0.1395
      5 C5         -2.1829    1.0953    1.2408 C.3       1 <0>        -0.0795
      6 H1         -2.2085   -0.0040    1.2713 H         1 <0>         0.0801
      7 C6         -0.7297    1.5798    1.2672 C.3       1 <0>        -0.1484
      8 C7         -0.0127    1.0858    0.0080 C.3       1 <0>         0.0541
      9 O1         -0.7043    1.5594   -1.1494 O.3       1 <0>        -0.3659
     10 C8         -2.9306    1.6478    2.4559 C.3       1 <0>        -0.0336
     11 H2         -2.8979    2.7473    2.4469 H         1 <0>         0.0897
     12 C9         -4.3837    1.1701    2.4211 C.3       1 <0>        -0.1452
     13 C10        -5.1624    1.8220    3.5655 C.3       1 <0>        -0.0062
     14 N1         -6.5576    1.3634    3.5320 N.4       1 <0>        -0.5379
     15 C11        -7.3374    1.9701    4.6191 C.3       1 <0>         0.0515
     16 C12        -8.7600    1.4772    4.5526 C.ar      1 <0>        -0.1779
     17 C13        -9.6975    2.1715    3.8109 C.ar      1 <0>        -0.0617
     18 C14       -11.0011    1.7173    3.7446 C.ar      1 <0>        -0.1521
     19 C15       -11.3704    0.5724    4.4301 C.ar      1 <0>         0.1407
     20 C16       -10.4318   -0.1190    5.1772 C.ar      1 <0>        -0.1521
     21 C17        -9.1277    0.3343    5.2379 C.ar      1 <0>        -0.0619
     22 F1        -12.6457    0.1305    4.3705 F         1 <0>        -0.1222
     23 C18        -2.2704    1.1561    3.7182 C.ar      1 <0>        -0.0933
     24 C19        -2.1871   -0.2002    3.9715 C.ar      1 <0>        -0.1193
     25 C20        -1.5776   -0.6514    5.1273 C.ar      1 <0>        -0.1139
     26 C21        -1.0598    0.2542    6.0344 C.ar      1 <0>        -0.1146
     27 C22        -1.1473    1.6108    5.7834 C.ar      1 <0>        -0.1123
     28 C23        -1.7530    2.0617    4.6255 C.ar      1 <0>        -0.1171
     29 C24        -2.6817    1.6433   -2.5365 C.3       1 <0>        -0.1461
     30 H3         -1.2822   -2.0237   -2.5130 H         1 <0>         0.0547
     31 H4         -0.2315   -0.5702   -2.4114 H         1 <0>         0.0617
     32 H5         -1.7214   -0.5332   -3.4142 H         1 <0>         0.0608
     33 H6         -3.1088   -0.7838   -1.3622 H         1 <0>         0.0687
     34 H7         -1.6189   -0.8208   -0.3594 H         1 <0>         0.0666
     35 H8         -2.8764    2.6938   -0.0445 H         1 <0>         0.0749
     36 H9         -3.8801    1.2052   -0.0992 H         1 <0>         0.0708
     37 H10        -0.7102    2.6792    1.2963 H         1 <0>         0.0728
     38 H11        -0.2262    1.1804    2.1599 H         1 <0>         0.0763
     39 H12         1.0193    1.4666    0.0004 H         1 <0>         0.0969
     40 H13         0.0023   -0.0141    0.0022 H         1 <0>         0.0548
     41 H14        -4.8393    1.4518    1.4604 H         1 <0>         0.0951
     42 H15        -4.4129    0.0763    2.5340 H         1 <0>         0.0899
     43 H16        -4.7068    1.5402    4.5262 H         1 <0>         0.1301
     44 H17        -5.1331    2.9158    3.4526 H         1 <0>         0.1296
     45 H18        -7.0132    1.6452    2.5713 H         1 <0>         0.4480
     46 H19        -6.8970    1.6893    5.5872 H         1 <0>         0.1355
     47 H20        -7.3234    3.0649    4.5136 H         1 <0>         0.1360
     48 H21        -9.4102    3.0669    3.2798 H         1 <0>         0.1420
     49 H22       -11.7324    2.2576    3.1618 H         1 <0>         0.1493
     50 H23       -10.7189   -1.0119    5.7127 H         1 <0>         0.1491
     51 H24        -8.3954   -0.2049    5.8205 H         1 <0>         0.1417
     52 H25        -2.5953   -0.9076    3.2648 H         1 <0>         0.1192
     53 H26        -1.5089   -1.7112    5.3233 H         1 <0>         0.1243
     54 H27        -0.5866   -0.0981    6.9390 H         1 <0>         0.1253
     55 H28        -0.7428    2.3183    6.4920 H         1 <0>         0.1255
     56 H29        -1.8217    3.1216    4.4296 H         1 <0>         0.1218
     57 H30        -2.6695    2.7430   -2.5137 H         1 <0>         0.0639
     58 H31        -3.7203    1.2896   -2.6149 H         1 <0>         0.0691
     59 H32        -2.1069    1.2882   -3.4045 H         1 <0>         0.0719
     60 H33        -6.5869    0.2696    3.6448 H         1 <0>         0.4483
@<TRIPOS>BOND
     1    1    2 1
     2    1   30 1
     3    1   31 1
     4    1   32 1
     5    2    3 1
     6    2   33 1
     7    2   34 1
     8    3    9 1
     9    3    4 1
    10    3   29 1
    11    4    5 1
    12    4   35 1
    13    4   36 1
    14    5    6 1
    15    5    7 1
    16    5   10 1
    17    7    8 1
    18    7   37 1
    19    7   38 1
    20    8    9 1
    21    8   39 1
    22    8   40 1
    23   10   11 1
    24   10   12 1
    25   10   23 1
    26   12   13 1
    27   12   41 1
    28   12   42 1
    29   13   14 1
    30   13   43 1
    31   13   44 1
    32   14   15 1
    33   14   45 1
    34   14   60 1
    35   15   16 1
    36   15   46 1
    37   15   47 1
    38   16   21 ar
    39   16   17 ar
    40   17   18 ar
    41   17   48 1
    42   18   19 ar
    43   18   49 1
    44   19   20 ar
    45   19   22 1
    46   20   21 ar
    47   20   50 1
    48   21   51 1
    49   23   28 ar
    50   23   24 ar
    51   24   25 ar
    52   24   52 1
    53   25   26 ar
    54   25   53 1
    55   26   27 ar
    56   26   54 1
    57   27   28 ar
    58   27   55 1
    59   28   56 1
    60   29   57 1
    61   29   58 1
    62   29   59 1
@<TRIPOS>MOLECULE
ZINC37231928
   49    50     0     0     0
SMALL
USER_CHARGES

@<TRIPOS>ATOM
      1 C1          0.0829    1.4815    0.1187 C.3       1 <0>        -0.1978
      2 C2         -0.0222   -0.0405    0.0038 C.3       1 <0>         0.0283
      3 H1         -1.0714   -0.3350    0.0267 H         1 <0>         0.1400
      4 C3          0.7162   -0.6925    1.1745 C.3       1 <0>        -0.1477
      5 C4          0.5066   -2.2075    1.1295 C.3       1 <0>        -0.1402
      6 C5          1.2450   -2.8595    2.3002 C.3       1 <0>        -0.1155
      7 C6          1.0355   -4.3744    2.2552 C.3       1 <0>        -0.0970
      8 C7          1.8735   -5.0379    3.3499 C.3       1 <0>        -0.1529
      9 C8         -0.4439   -4.6916    2.4826 C.3       1 <0>        -0.1528
     10 N1          0.5820   -0.4790   -1.2614 N.4       1 <0>        -0.5110
     11 C9         -0.2298    0.0059   -2.3856 C.3       1 <0>         0.1399
     12 H2         -1.2798   -0.2196   -2.1995 H         1 <0>         0.1577
     13 C10         0.2196   -0.6852   -3.6745 C.3       1 <0>        -0.0460
     14 C11        -0.0705   -2.1610   -3.5807 C.2       1 <0>        -0.2236
     15 C12        -1.1855   -2.8370   -3.9509 C.2       1 <0>        -0.1032
     16 C13        -1.2301   -4.2067   -3.7701 C.2       1 <0>        -0.1660
     17 C14        -0.1574   -4.8333   -3.2279 C.2       1 <0>        -0.1244
     18 S1          0.9682   -3.4737   -2.9602 S.3       1 <0>         0.0173
     19 C15        -0.0534    1.4959   -2.5267 C.2       1 <0>        -0.2462
     20 C16        -0.9817    2.4424   -2.8093 C.2       1 <0>        -0.0807
     21 C17        -0.5876    3.7648   -2.8897 C.2       1 <0>        -0.1709
     22 C18         0.7155    4.0761   -2.6836 C.2       1 <0>        -0.1134
     23 S2          1.4309    2.4733   -2.3573 S.3       1 <0>         0.0572
     24 H3          1.1038    1.7929   -0.1022 H         1 <0>         0.0864
     25 H4         -0.6007    1.9475   -0.5909 H         1 <0>         0.0926
     26 H5         -0.1795    1.7885    1.1311 H         1 <0>         0.1025
     27 H6          1.7809   -0.4707    1.1014 H         1 <0>         0.0895
     28 H7          0.3268   -0.2997    2.1138 H         1 <0>         0.1164
     29 H8         -0.5580   -2.4293    1.2026 H         1 <0>         0.0819
     30 H9          0.8960   -2.6003    0.1903 H         1 <0>         0.0557
     31 H10         2.3097   -2.6376    2.2271 H         1 <0>         0.0682
     32 H11         0.8557   -2.4666    3.2394 H         1 <0>         0.0725
     33 H12         1.3431   -4.7549    1.2812 H         1 <0>         0.0685
     34 H13         1.5659   -4.6574    4.3238 H         1 <0>         0.0574
     35 H14         1.7242   -6.1172    3.3178 H         1 <0>         0.0589
     36 H15         2.9274   -4.8119    3.1878 H         1 <0>         0.0559
     37 H16        -1.0409   -4.2189    1.7027 H         1 <0>         0.0518
     38 H17        -0.5932   -5.7709    2.4505 H         1 <0>         0.0582
     39 H18        -0.7515   -4.3111    3.4565 H         1 <0>         0.0577
     40 H19         1.5163   -0.1052   -1.3353 H         1 <0>         0.4211
     41 H20        -0.3208   -0.2618   -4.5212 H         1 <0>         0.1369
     42 H21         1.2899   -0.5334   -3.8140 H         1 <0>         0.1053
     43 H22        -2.0267   -2.3132   -4.3805 H         1 <0>         0.1434
     44 H23        -2.1066   -4.7690   -4.0563 H         1 <0>         0.1482
     45 H24        -0.0183   -5.8832   -3.0164 H         1 <0>         0.1973
     46 H25        -2.0137    2.1673   -2.9696 H         1 <0>         0.1463
     47 H26        -1.3071    4.5385   -3.1137 H         1 <0>         0.1522
     48 H27         1.1955    5.0433   -2.7067 H         1 <0>         0.2008
     49 H28         0.6202   -1.4870   -1.2843 H         1 <0>         0.4234
@<TRIPOS>BOND
     1    1    2 1
     2    1   24 1
     3    1   25 1
     4    1   26 1
     5    2    3 1
     6    2    4 1
     7    2   10 1
     8    4    5 1
     9    4   27 1
    10    4   28 1
    11    5    6 1
    12    5   29 1
    13    5   30 1
    14    6    7 1
    15    6   31 1
    16    6   32 1
    17    7    8 1
    18    7    9 1
    19    7   33 1
    20    8   34 1
    21    8   35 1
    22    8   36 1
    23    9   37 1
    24    9   38 1
    25    9   39 1
    26   10   11 1
    27   10   40 1
    28   10   49 1
    29   11   12 1
    30   11   13 1
    31   11   19 1
    32   13   14 1
    33   13   41 1
    34   13   42 1
    35   14   18 1
    36   14   15 2
    37   15   16 1
    38   15   43 1
    39   16   17 2
    40   16   44 1
    41   17   18 1
    42   17   45 1
    43   19   23 1
    44   19   20 2
    45   20   21 1
    46   20   46 1
    47   21   22 2
    48   21   47 1
    49   22   23 1
    50   22   48 1
@<TRIPOS>MOLECULE
ZINC43983178
   51    52     0     0     0
SMALL
USER_CHARGES

@<TRIPOS>ATOM
      1 C1          0.5354   -0.5266   -2.5808 C.3       1 <0>        -0.1558
      2 C2          0.3500   -1.8161   -1.7783 C.3       1 <0>        -0.1507
      3 C3          1.0171   -1.6654   -0.4097 C.3       1 <0>        -0.0214
      4 N1          0.8392   -2.9034    0.3608 N.4       1 <0>        -0.5194
      5 C4          1.4797   -2.7587    1.6748 C.3       1 <0>        -0.0140
      6 H1          1.0497   -1.9036    2.1965 H         1 <0>         0.1404
      7 C5          2.9824   -2.5394    1.4884 C.3       1 <0>        -0.1372
      8 C6          3.5860   -3.7396    0.7562 C.3       1 <0>        -0.1345
      9 C7          3.3540   -5.0084    1.5791 C.3       1 <0>        -0.0935
     10 H2          3.8292   -4.9010    2.5541 H         1 <0>         0.0929
     11 C8          1.8513   -5.2277    1.7656 C.3       1 <0>        -0.1243
     12 C9          1.2477   -4.0275    2.4977 C.3       1 <0>         0.0545
     13 H3          1.7230   -3.9201    3.4728 H         1 <0>         0.1492
     14 N2         -0.1950   -4.2381    2.6768 N.3       1 <0>        -0.4883
     15 C10        -0.8439   -3.0257    3.1936 C.3       1 <0>        -0.0157
     16 C11        -0.3955   -2.7828    4.6362 C.3       1 <0>         0.4604
     17 F1          0.9725   -2.4908    4.6564 F         1 <0>        -0.1840
     18 F2         -1.1102   -1.7058    5.1715 F         1 <0>        -0.1709
     19 F3         -0.6390   -3.9296    5.3995 F         1 <0>        -0.1601
     20 C12        -0.8225   -4.6773    1.4233 C.3       1 <0>        -0.0485
     21 C13        -2.0139   -3.8675    0.9079 C.3       1 <0>        -0.2506
     22 C14        -2.2355   -5.2581    1.5062 C.3       1 <0>        -0.1222
     23 C15         3.9576   -6.2086    0.8469 C.3       1 <0>        -0.1204
     24 C16         5.4772   -6.0479    0.7705 C.3       1 <0>        -0.1595
     25 H4          1.5994   -0.3318   -2.7147 H         1 <0>         0.0687
     26 H5          0.0601   -0.6340   -3.5558 H         1 <0>         0.0794
     27 H6          0.0786    0.3045   -2.0435 H         1 <0>         0.0680
     28 H7         -0.7140   -2.0109   -1.6444 H         1 <0>         0.0846
     29 H8          0.8068   -2.6472   -2.3156 H         1 <0>         0.0867
     30 H9          2.0812   -1.4705   -0.5436 H         1 <0>         0.1371
     31 H10         0.5604   -0.8342    0.1276 H         1 <0>         0.1312
     32 H11        -0.1458   -3.0837    0.4847 H         1 <0>         0.4191
     33 H12         3.1477   -1.6355    0.9021 H         1 <0>         0.0942
     34 H13         3.4576   -2.4320    2.4634 H         1 <0>         0.1171
     35 H14         3.1107   -3.8469   -0.2188 H         1 <0>         0.0571
     36 H15         4.6565   -3.5834    0.6234 H         1 <0>         0.1009
     37 H16         1.3760   -5.3351    0.7905 H         1 <0>         0.0610
     38 H17         1.6860   -6.1316    2.3518 H         1 <0>         0.1079
     39 H18        -0.5625   -2.1720    2.5771 H         1 <0>         0.0805
     40 H19        -1.9261   -3.1528    3.1660 H         1 <0>         0.1420
     41 H20        -0.1456   -5.1040    0.6830 H         1 <0>         0.1372
     42 H21        -2.3322   -3.0088    1.4990 H         1 <0>         0.1155
     43 H22        -2.1210   -3.7611   -0.1715 H         1 <0>         0.1152
     44 H23        -2.4884   -6.0666    0.8203 H         1 <0>         0.1190
     45 H24        -2.6996   -5.3143    2.4909 H         1 <0>         0.1165
     46 H25         3.7157   -7.1234    1.3879 H         1 <0>         0.0729
     47 H26         3.5468   -6.2633   -0.1612 H         1 <0>         0.0626
     48 H27         5.8879   -5.9932    1.7787 H         1 <0>         0.0595
     49 H28         5.9072   -6.9030    0.2489 H         1 <0>         0.0616
     50 H29         5.7191   -5.1331    0.2295 H         1 <0>         0.0561
     51 H30         1.2620   -3.6728   -0.1366 H         1 <0>         0.4221
@<TRIPOS>BOND
     1    1    2 1
     2    1   25 1
     3    1   26 1
     4    1   27 1
     5    2    3 1
     6    2   28 1
     7    2   29 1
     8    3    4 1
     9    3   30 1
    10    3   31 1
    11    4    5 1
    12    4   32 1
    13    4   51 1
    14    5    6 1
    15    5   12 1
    16    5    7 1
    17    7    8 1
    18    7   33 1
    19    7   34 1
    20    8    9 1
    21    8   35 1
    22    8   36 1
    23    9   10 1
    24    9   11 1
    25    9   23 1
    26   11   12 1
    27   11   37 1
    28   11   38 1
    29   12   13 1
    30   12   14 1
    31   14   15 1
    32   14   20 1
    33   15   16 1
    34   15   39 1
    35   15   40 1
    36   16   17 1
    37   16   18 1
    38   16   19 1
    39   20   22 1
    40   20   21 1
    41   20   41 1
    42   21   22 1
    43   21   42 1
    44   21   43 1
    45   22   44 1
    46   22   45 1
    47   23   24 1
    48   23   46 1
    49   23   47 1
    50   24   48 1
    51   24   49 1
    52   24   50 1
@<TRIPOS>MOLECULE
ZINC54556629
   49    49     0     0     0
SMALL
USER_CHARGES

@<TRIPOS>ATOM
      1 C1         -0.0187    1.5258    0.0104 C.3       1 <0>        -0.1566
      2 C2          0.0021   -0.0041    0.0020 C.3       1 <0>        -0.1501
      3 C3         -1.4333   -0.5336    0.0129 C.3       1 <0>        -0.0135
      4 N1         -1.4134   -2.0025    0.0048 N.4       1 <0>        -0.5060
      5 C4         -2.7915   -2.5110    0.0152 C.3       1 <0>         0.0293
      6 H1         -3.3284   -2.0882    0.8645 H         1 <0>         0.1490
      7 C5         -3.4935   -2.1085   -1.2833 C.3       1 <0>        -0.1396
      8 C6         -2.7399   -2.7019   -2.4754 C.3       1 <0>        -0.1315
      9 C7         -2.7199   -4.2272   -2.3581 C.3       1 <0>        -0.0890
     10 H2         -3.7425   -4.6045   -2.3503 H         1 <0>         0.0998
     11 C8         -2.0180   -4.6297   -1.0595 C.3       1 <0>        -0.1598
     12 C9         -2.7715   -4.0363    0.1326 C.3       1 <0>         0.0779
     13 H3         -2.2714   -4.3230    1.0577 H         1 <0>         0.0901
     14 O1         -4.1121   -4.5309    0.1427 O.3       1 <0>        -0.3410
     15 C10        -4.2802   -5.7394    0.8867 C.3       1 <0>         0.0191
     16 C11        -5.7460   -6.1741    0.8290 C.3       1 <0>         0.2570
     17 C12        -6.1507   -6.4113   -0.6273 C.3       1 <0>         0.2391
     18 F1         -7.4910   -6.8088   -0.6800 F         1 <0>        -0.1775
     19 F2         -5.9862   -5.2282   -1.3556 F         1 <0>        -0.1690
     20 F3         -5.9105   -7.3572    1.5573 F         1 <0>        -0.1616
     21 F4         -6.5517   -5.1717    1.3796 F         1 <0>        -0.1675
     22 C13        -1.9664   -4.8206   -3.5501 C.3       1 <0>        -0.0901
     23 C14        -1.9463   -6.3460   -3.4328 C.3       1 <0>        -0.1549
     24 C15        -2.6683   -4.4182   -4.8487 C.3       1 <0>        -0.1552
     25 H4          1.0039    1.9031    0.0027 H         1 <0>         0.0784
     26 H5         -0.5459    1.8868   -0.8726 H         1 <0>         0.0678
     27 H6         -0.5289    1.8773    0.9072 H         1 <0>         0.0679
     28 H7          0.5123   -0.3556   -0.8948 H         1 <0>         0.0858
     29 H8          0.5293   -0.3651    0.8851 H         1 <0>         0.0867
     30 H9         -1.9435   -0.1821    0.9097 H         1 <0>         0.1344
     31 H10        -1.9605   -0.1726   -0.8702 H         1 <0>         0.1353
     32 H11        -0.9411   -2.3279   -0.8254 H         1 <0>         0.4248
     33 H12        -4.5161   -2.4858   -1.2756 H         1 <0>         0.1227
     34 H13        -3.5077   -1.0218   -1.3669 H         1 <0>         0.0902
     35 H14        -3.2400   -2.4152   -3.4005 H         1 <0>         0.0984
     36 H15        -1.7174   -2.3246   -2.4831 H         1 <0>         0.0548
     37 H16        -2.0037   -5.7164   -0.9759 H         1 <0>         0.0978
     38 H17        -0.9954   -4.2524   -1.0672 H         1 <0>         0.0714
     39 H18        -3.6524   -6.5204    0.4577 H         1 <0>         0.0996
     40 H19        -3.9918   -5.5704    1.9242 H         1 <0>         0.0992
     41 H20        -5.5230   -7.1923   -1.0563 H         1 <0>         0.1398
     42 H21        -0.9438   -4.4433   -3.5579 H         1 <0>         0.0687
     43 H22        -2.9689   -6.7232   -3.4251 H         1 <0>         0.0578
     44 H23        -1.4095   -6.7687   -4.2821 H         1 <0>         0.0618
     45 H24        -1.4463   -6.6327   -2.5077 H         1 <0>         0.0544
     46 H25        -2.6826   -3.3315   -4.9323 H         1 <0>         0.0572
     47 H26        -2.1315   -4.8409   -5.6980 H         1 <0>         0.0606
     48 H27        -3.6909   -4.7955   -4.8410 H         1 <0>         0.0596
     49 H28        -0.9254   -2.3367    0.8222 H         1 <0>         0.4264
@<TRIPOS>BOND
     1    1    2 1
     2    1   25 1
     3    1   26 1
     4    1   27 1
     5    2    3 1
     6    2   28 1
     7    2   29 1
     8    3    4 1
     9    3   30 1
    10    3   31 1
    11    4    5 1
    12    4   32 1
    13    4   49 1
    14    5    6 1
    15    5   12 1
    16    5    7 1
    17    7    8 1
    18    7   33 1
    19    7   34 1
    20    8    9 1
    21    8   35 1
    22    8   36 1
    23    9   10 1
    24    9   11 1
    25    9   22 1
    26   11   12 1
    27   11   37 1
    28   11   38 1
    29   12   13 1
    30   12   14 1
    31   14   15 1
    32   15   16 1
    33   15   39 1
    34   15   40 1
    35   16   17 1
    36   16   20 1
    37   16   21 1
    38   17   18 1
    39   17   19 1
    40   17   41 1
    41   22   23 1
    42   22   24 1
    43   22   42 1
    44   23   43 1
    45   23   44 1
    46   23   45 1
    47   24   46 1
    48   24   47 1
    49   24   48 1
@<TRIPOS>MOLECULE
ZINC66181100
   56    57     0     0     0
SMALL
USER_CHARGES

@<TRIPOS>ATOM
      1 C1          0.0839   -2.2443    1.3404 C.3       1 <0>        -0.1758
      2 C2         -0.8640   -1.9762    0.1697 C.3       1 <0>        -0.1430
      3 C3         -1.3139   -0.5142    0.2022 C.3       1 <0>         0.0865
      4 H1         -0.4385    0.1351    0.2140 H         1 <0>         0.1442
      5 C4         -2.1436   -0.2166   -1.0201 C.ar      1 <0>        -0.1850
      6 C5         -3.4759   -0.5847   -1.0562 C.ar      1 <0>        -0.0805
      7 C6         -4.2385   -0.3135   -2.1757 C.ar      1 <0>        -0.1405
      8 C7         -3.6667    0.3293   -3.2640 C.ar      1 <0>         0.1635
      9 C8         -2.3298    0.6980   -3.2251 C.ar      1 <0>        -0.2009
     10 C9         -1.5728    0.4291   -2.1012 C.ar      1 <0>        -0.0433
     11 O1         -4.4147    0.5968   -4.3666 O.3       1 <0>        -0.3075
     12 C10        -3.7599    1.2610   -5.4493 C.3       1 <0>         0.0517
     13 C11        -4.7541    1.4752   -6.5923 C.3       1 <0>        -0.1568
     14 N1         -2.1167   -0.2757    1.4091 N.4       1 <0>        -0.5073
     15 C12        -2.4409    1.1538    1.5069 C.3       1 <0>         0.0468
     16 C13        -3.1555    1.4190    2.8070 C.ar      1 <0>        -0.1722
     17 C14        -4.5338    1.3335    2.8680 C.ar      1 <0>        -0.0887
     18 C15        -5.1893    1.5767    4.0605 C.ar      1 <0>        -0.1125
     19 C16        -4.4664    1.9050    5.1921 C.ar      1 <0>        -0.0278
     20 C17        -3.0880    1.9896    5.1313 C.ar      1 <0>        -0.1186
     21 C18        -2.4322    1.7422    3.9398 C.ar      1 <0>        -0.0893
     22 C19        -5.1811    2.1712    6.4919 C.3       1 <0>        -0.0388
     23 C20        -5.9690    0.9264    6.9048 C.3       1 <0>        -0.1417
     24 C21        -4.1570    2.5097    7.5769 C.3       1 <0>        -0.1498
     25 C22        -6.1429    3.3476    6.3134 C.3       1 <0>        -0.1429
     26 H2          0.4805   -3.2566    1.2623 H         1 <0>         0.0849
     27 H3          0.9058   -1.5290    1.3136 H         1 <0>         0.0718
     28 H4         -0.4595   -2.1384    2.2794 H         1 <0>         0.0532
     29 H5         -0.3477   -2.1767   -0.7691 H         1 <0>         0.1130
     30 H6         -1.7351   -2.6263    0.2513 H         1 <0>         0.0884
     31 H7         -3.9206   -1.0851   -0.2087 H         1 <0>         0.1245
     32 H8         -5.2789   -0.6018   -2.2037 H         1 <0>         0.1430
     33 H9         -1.8823    1.1984   -4.0711 H         1 <0>         0.1410
     34 H10        -0.5332    0.7199   -2.0687 H         1 <0>         0.1363
     35 H11        -3.3837    2.2259   -5.1094 H         1 <0>         0.0678
     36 H12        -2.9283    0.6502   -5.8007 H         1 <0>         0.0683
     37 H13        -4.2547    1.9818   -7.4182 H         1 <0>         0.0857
     38 H14        -5.1303    0.5103   -6.9323 H         1 <0>         0.0702
     39 H15        -5.5857    2.0860   -6.2410 H         1 <0>         0.0698
     40 H16        -2.9703   -0.8113    1.3565 H         1 <0>         0.4217
     41 H17        -1.5214    1.7381    1.4720 H         1 <0>         0.1362
     42 H18        -3.0840    1.4383    0.6742 H         1 <0>         0.1372
     43 H19        -5.0986    1.0770    1.9839 H         1 <0>         0.1300
     44 H20        -6.2663    1.5106    4.1080 H         1 <0>         0.1340
     45 H21        -2.5232    2.2464    6.0153 H         1 <0>         0.1396
     46 H22        -1.3550    1.8046    3.8932 H         1 <0>         0.1304
     47 H23        -5.2838    0.0882    7.0319 H         1 <0>         0.0575
     48 H24        -6.4859    1.1189    7.8450 H         1 <0>         0.0674
     49 H25        -6.6986    0.6852    6.1318 H         1 <0>         0.0586
     50 H26        -3.5956    3.3965    7.2827 H         1 <0>         0.0609
     51 H27        -4.6739    2.7022    8.5171 H         1 <0>         0.0670
     52 H28        -3.4718    1.6716    7.7041 H         1 <0>         0.0601
     53 H29        -6.8725    3.1064    5.5404 H         1 <0>         0.0589
     54 H30        -6.6598    3.5401    7.2536 H         1 <0>         0.0675
     55 H31        -5.5815    4.2344    6.0192 H         1 <0>         0.0589
     56 H32        -1.5921   -0.5581    2.2233 H         1 <0>         0.4265
@<TRIPOS>BOND
     1    1    2 1
     2    1   26 1
     3    1   27 1
     4    1   28 1
     5    2    3 1
     6    2   29 1
     7    2   30 1
     8    3    4 1
     9    3    5 1
    10    3   14 1
    11    5   10 ar
    12    5    6 ar
    13    6    7 ar
    14    6   31 1
    15    7    8 ar
    16    7   32 1
    17    8    9 ar
    18    8   11 1
    19    9   10 ar
    20    9   33 1
    21   10   34 1
    22   11   12 1
    23   12   13 1
    24   12   35 1
    25   12   36 1
    26   13   37 1
    27   13   38 1
    28   13   39 1
    29   14   15 1
    30   14   40 1
    31   14   56 1
    32   15   16 1
    33   15   41 1
    34   15   42 1
    35   16   21 ar
    36   16   17 ar
    37   17   18 ar
    38   17   43 1
    39   18   19 ar
    40   18   44 1
    41   19   20 ar
    42   19   22 1
    43   20   21 ar
    44   20   45 1
    45   21   46 1
    46   22   23 1
    47   22   24 1
    48   22   25 1
    49   23   47 1
    50   23   48 1
    51   23   49 1
    52   24   50 1
    53   24   51 1
    54   24   52 1
    55   25   53 1
    56   25   54 1
    57   25   55 1
@<TRIPOS>MOLECULE
ZINC20494989
   44    46     0     0     0
SMALL
USER_CHARGES
3-[4-chloro-3-(trifluoromethyl)phenyl]-1-[(2-fluorophenyl)methyl]-1-(2-furylmethyl)thiourea
@<TRIPOS>ATOM
      1 C1          4.5080    4.3706    1.6490 C.ar      1 <0>        -0.1320
      2 C2          5.2468    3.6821    2.5934 C.ar      1 <0>        -0.0807
      3 C3          5.4331    2.3189    2.4661 C.ar      1 <0>        -0.1598
      4 C4          4.8795    1.6422    1.3922 C.ar      1 <0>         0.1051
      5 C5          4.1400    2.3326    0.4472 C.ar      1 <0>        -0.1474
      6 C6          3.9597    3.6972    0.5736 C.ar      1 <0>        -0.0512
      7 C7          3.5368    1.5977   -0.7220 C.3       1 <0>         0.1507
      8 N1          2.3032    0.9319   -0.2966 N.pl3     1 <0>        -0.5527
      9 C8          2.3515   -0.4366    0.2240 C.3       1 <0>         0.1650
     10 C9          2.1879   -1.4125   -0.9127 C.2       1 <0>        -0.0621
     11 C10         3.1843   -1.9378   -1.6480 C.2       1 <0>        -0.1685
     12 C11         2.5840   -2.7970   -2.5969 C.2       1 <0>        -0.2145
     13 C12         1.2567   -2.7454   -2.3845 C.2       1 <0>        -0.0188
     14 O1          1.0231   -1.9097   -1.3595 O.3       1 <0>        -0.1776
     15 C13         1.1238    1.5784   -0.3841 C.2       1 <0>         0.5621
     16 S1          1.0674    3.1777   -0.9924 S.2       1 <0>        -0.6054
     17 N2         -0.0111    0.9658    0.0074 N.pl3     1 <0>        -0.6428
     18 C14        -1.2232    1.6652   -0.0034 C.ar      1 <0>         0.1337
     19 C15        -2.0845    1.5812    1.0830 C.ar      1 <0>        -0.0791
     20 C16        -3.2773    2.2768    1.0723 C.ar      1 <0>        -0.1056
     21 C17        -3.6203    3.0478   -0.0248 C.ar      1 <0>         0.0111
     22 C18        -2.7667    3.1287   -1.1107 C.ar      1 <0>        -0.1720
     23 C19        -1.5695    2.4397   -1.1025 C.ar      1 <0>        -0.0137
     24 C20        -3.1433    3.9695   -2.3033 C.3       1 <0>         0.5120
     25 F1         -2.1302    3.8947   -3.2652 F         1 <0>        -0.1693
     26 F2         -4.3407    3.4947   -2.8493 F         1 <0>        -0.1717
     27 F3         -3.3086    5.2996   -1.9026 F         1 <0>        -0.1684
     28 Cl1        -5.1239    3.9153   -0.0381 Cl        1 <0>        -0.0401
     29 F4          5.0614    0.3095    1.2664 F         1 <0>        -0.1404
     30 H1          4.3629    5.4361    1.7494 H         1 <0>         0.1324
     31 H2          5.6788    4.2101    3.4307 H         1 <0>         0.1336
     32 H3          6.0106    1.7814    3.2037 H         1 <0>         0.1356
     33 H4          3.3866    4.2367   -0.1658 H         1 <0>         0.1522
     34 H5          3.3090    2.3126   -1.5264 H         1 <0>         0.1313
     35 H6          4.2506    0.8463   -1.0906 H         1 <0>         0.0995
     36 H7          3.3197   -0.6072    0.7173 H         1 <0>         0.1400
     37 H8          1.5390   -0.5812    0.9512 H         1 <0>         0.0957
     38 H9          4.2401   -1.7405   -1.5357 H         1 <0>         0.1516
     39 H10         3.0933   -3.3822   -3.3482 H         1 <0>         0.1535
     40 H11         0.5065   -3.2872   -2.9413 H         1 <0>         0.2074
     41 H12         0.0154   -0.0838    0.3354 H         1 <0>         0.4343
     42 H13        -1.8193    0.9762    1.9375 H         1 <0>         0.1435
     43 H14        -3.9452    2.2157    1.9188 H         1 <0>         0.1517
     44 H15        -0.9036    2.5032   -1.9504 H         1 <0>         0.1718
@<TRIPOS>BOND
     1    1    6 ar
     2    1    2 ar
     3    1   30 1
     4    2    3 ar
     5    2   31 1
     6    3    4 ar
     7    3   32 1
     8    4    5 ar
     9    4   29 1
    10    5    6 ar
    11    5    7 1
    12    6   33 1
    13    7    8 1
    14    7   34 1
    15    7   35 1
    16    8    9 1
    17    8   15 1
    18    9   10 1
    19    9   36 1
    20    9   37 1
    21   10   14 1
    22   10   11 2
    23   11   12 1
    24   11   38 1
    25   12   13 2
    26   12   39 1
    27   13   14 1
    28   13   40 1
    29   15   16 2
    30   15   17 1
    31   17   18 1
    32   17   41 1
    33   18   23 ar
    34   18   19 ar
    35   19   20 ar
    36   19   42 1
    37   20   21 ar
    38   20   43 1
    39   21   22 ar
    40   21   28 1
    41   22   23 ar
    42   22   24 1
    43   23   44 1
    44   24   25 1
    45   24   26 1
    46   24   27 1
@<TRIPOS>MOLECULE
ZINC36773303
   41    42     0     0     0
SMALL
USER_CHARGES

@<TRIPOS>ATOM
      1 C1         -1.1933    1.4093   -0.6389 C.3       1 <0>        -0.1364
      2 C2         -0.9474   -0.0964   -0.5234 C.3       1 <0>        -0.1020
      3 C3         -0.0902   -0.3799    0.7118 C.3       1 <0>        -0.1442
      4 C4         -2.2872   -0.8234   -0.3922 C.3       1 <0>        -0.1442
      5 C5         -0.2298   -0.5841   -1.7556 C.2       1 <0>         0.3865
      6 O1          0.0555    0.1924   -2.6353 O.2       1 <0>        -0.4285
      7 C6          0.1318   -2.0409   -1.8899 C.3       1 <0>        -0.1861
      8 S1          0.9803   -2.3101   -3.4705 S.3       1 <0>         0.1015
      9 C7          1.3320   -4.0366   -3.4769 C.2       1 <0>         0.0346
     10 N1          1.0525   -4.9502   -2.5669 N.2       1 <0>        -0.2786
     11 N2          1.4227   -6.2588   -2.7749 N.2       1 <0>        -0.3515
     12 C8          2.0550   -6.5939   -3.8827 C.2       1 <0>         0.3321
     13 S2          2.1554   -5.0195   -4.7206 S.3       1 <0>         0.0248
     14 N3          2.5156   -7.8402   -4.2914 N.pl3     1 <0>        -0.6046
     15 C9          2.2160   -8.9797   -3.5352 C.ar      1 <0>         0.1641
     16 C10         3.0598  -10.0823   -3.5767 C.ar      1 <0>        -0.1291
     17 C11         2.7646  -11.2060   -2.8311 C.ar      1 <0>        -0.0613
     18 C12         1.6237  -11.2339   -2.0388 C.ar      1 <0>        -0.1111
     19 C13         0.7800  -10.1308   -1.9970 C.ar      1 <0>        -0.0899
     20 C14         1.0781   -9.0054   -2.7390 C.ar      1 <0>        -0.1109
     21 S3          1.2464  -12.6682   -1.0875 S.3       1 <0>        -0.0935
     22 C15        -0.2990  -12.2389   -0.2402 C.3       1 <0>         0.2718
     23 F1         -0.0928  -11.1125    0.5636 F         1 <0>        -0.1791
     24 F2         -1.2889  -11.9600   -1.1887 F         1 <0>        -0.1801
     25 H1         -0.2388    1.9272   -0.7323 H         1 <0>         0.0633
     26 H2         -1.8040    1.6113   -1.5189 H         1 <0>         0.0633
     27 H3         -1.7123    1.7620    0.2523 H         1 <0>         0.0673
     28 H4         -0.6092   -0.0272    1.6030 H         1 <0>         0.0741
     29 H5          0.0850   -1.4526    0.7940 H         1 <0>         0.0654
     30 H6          0.8643    0.1380    0.6183 H         1 <0>         0.0629
     31 H7         -2.8979   -0.6214   -1.2722 H         1 <0>         0.0629
     32 H8         -2.1121   -1.8961   -0.3100 H         1 <0>         0.0654
     33 H9         -2.8063   -0.4706    0.4990 H         1 <0>         0.0741
     34 H10         0.7902   -2.3290   -1.0704 H         1 <0>         0.1338
     35 H11        -0.7750   -2.6449   -1.8569 H         1 <0>         0.1339
     36 H12         3.0445   -7.9203   -5.1006 H         1 <0>         0.4329
     37 H13         3.9467  -10.0606   -4.1926 H         1 <0>         0.1386
     38 H14         3.4204  -12.0635   -2.8640 H         1 <0>         0.1390
     39 H15        -0.1069  -10.1523   -1.3812 H         1 <0>         0.1315
     40 H16         0.4245   -8.1464   -2.7034 H         1 <0>         0.1475
     41 H17        -0.6171  -13.0757    0.3816 H         1 <0>         0.1597
@<TRIPOS>BOND
     1    1    2 1
     2    1   25 1
     3    1   26 1
     4    1   27 1
     5    2    3 1
     6    2    4 1
     7    2    5 1
     8    3   28 1
     9    3   29 1
    10    3   30 1
    11    4   31 1
    12    4   32 1
    13    4   33 1
    14    5    6 2
    15    5    7 1
    16    7    8 1
    17    7   34 1
    18    7   35 1
    19    8    9 1
    20    9   13 1
    21    9   10 2
    22   10   11 1
    23   11   12 2
    24   12   13 1
    25   12   14 1
    26   14   15 1
    27   14   36 1
    28   15   20 ar
    29   15   16 ar
    30   16   17 ar
    31   16   37 1
    32   17   18 ar
    33   17   38 1
    34   18   19 ar
    35   18   21 1
    36   19   20 ar
    37   19   39 1
    38   20   40 1
    39   21   22 1
    40   22   23 1
    41   22   24 1
    42   22   41 1
@<TRIPOS>MOLECULE
ZINC05875217
   43    44     0     0     0
SMALL
USER_CHARGES

@<TRIPOS>ATOM
      1 C1         -0.0187    1.5258    0.0104 C.3       1 <0>        -0.1541
      2 C2          0.0021   -0.0041    0.0020 C.3       1 <0>        -0.1322
      3 C3          0.7421   -0.5109    1.2415 C.3       1 <0>         0.1395
      4 H1          0.2852   -0.0874    2.1360 H         1 <0>         0.0896
      5 C4          0.6554   -2.0374    1.2986 C.3       1 <0>        -0.1654
      6 N1          2.1476   -0.1038    1.1716 N.am      1 <0>        -0.7241
      7 C5          2.8685    0.0265    2.3029 C.2       1 <0>         0.5206
      8 O1          2.3536   -0.1931    3.3788 O.2       1 <0>        -0.5305
      9 C6          4.3144    0.4453    2.2310 C.3       1 <0>        -0.1287
     10 C7          4.8956    0.5167    3.6445 C.3       1 <0>        -0.0981
     11 S1          6.6360    1.0207    3.5579 S.3       1 <0>         0.0283
     12 C8          7.1538    1.0559    5.2418 C.ar      1 <0>         0.3188
     13 N2          8.4007    1.3994    5.5260 N.ar      1 <0>        -0.4737
     14 C9          8.8224    1.4354    6.7905 C.ar      1 <0>         0.2988
     15 C10         7.9248    1.1038    7.8142 C.ar      1 <0>        -0.1852
     16 C11         6.6342    0.7517    7.4691 C.ar      1 <0>         0.1172
     17 N3          6.2835    0.7430    6.1917 N.ar      1 <0>        -0.4940
     18 C12         5.6338    0.3868    8.5355 C.3       1 <0>         0.5262
     19 F1          4.9563    1.5375    8.9527 F         1 <0>        -0.1621
     20 F2          4.7156   -0.5333    8.0183 F         1 <0>        -0.1551
     21 F3          6.3009   -0.1825    9.6255 F         1 <0>        -0.1633
     22 C13        10.2118    1.8177    7.1067 C.2       1 <0>        -0.1582
     23 C14        11.2243    2.1762    6.2547 C.2       1 <0>        -0.0783
     24 C15        12.4527    2.4957    6.7848 C.2       1 <0>        -0.1708
     25 C16        12.6259    2.4467    8.1322 C.2       1 <0>        -0.1427
     26 S2         11.0102    1.9413    8.6989 S.3       1 <0>         0.0963
     27 H2          1.0039    1.9031    0.0027 H         1 <0>         0.0545
     28 H3         -0.5459    1.8868   -0.8726 H         1 <0>         0.0576
     29 H4         -0.5289    1.8773    0.9072 H         1 <0>         0.0559
     30 H5         -1.0205   -0.3814    0.0098 H         1 <0>         0.0798
     31 H6          0.5123   -0.3556   -0.8948 H         1 <0>         0.0685
     32 H7          1.1826   -2.3985    2.1817 H         1 <0>         0.0612
     33 H8         -0.3904   -2.3402    1.3506 H         1 <0>         0.0668
     34 H9          1.1123   -2.4609    0.4042 H         1 <0>         0.0571
     35 H10         2.5595    0.0718    0.3111 H         1 <0>         0.4009
     36 H11         4.8747   -0.2826    1.6441 H         1 <0>         0.1068
     37 H12         4.3858    1.4251    1.7588 H         1 <0>         0.1067
     38 H13         4.3353    1.2446    4.2314 H         1 <0>         0.1060
     39 H14         4.8241   -0.4631    4.1167 H         1 <0>         0.1066
     40 H15         8.2347    1.1226    8.8486 H         1 <0>         0.1637
     41 H16        11.0607    2.2070    5.1876 H         1 <0>         0.1479
     42 H17        13.2695    2.7815    6.1386 H         1 <0>         0.1452
     43 H18        13.5117    2.6625    8.7112 H         1 <0>         0.1961
@<TRIPOS>BOND
     1    1    2 1
     2    1   27 1
     3    1   28 1
     4    1   29 1
     5    2    3 1
     6    2   30 1
     7    2   31 1
     8    3    4 1
     9    3    5 1
    10    3    6 1
    11    5   32 1
    12    5   33 1
    13    5   34 1
    14    6    7 am
    15    6   35 1
    16    7    8 2
    17    7    9 1
    18    9   10 1
    19    9   36 1
    20    9   37 1
    21   10   11 1
    22   10   38 1
    23   10   39 1
    24   11   12 1
    25   12   17 ar
    26   12   13 ar
    27   13   14 ar
    28   14   15 ar
    29   14   22 1
    30   15   16 ar
    31   15   40 1
    32   16   17 ar
    33   16   18 1
    34   18   19 1
    35   18   20 1
    36   18   21 1
    37   22   26 1
    38   22   23 2
    39   23   24 1
    40   23   41 1
    41   24   25 2
    42   24   42 1
    43   25   26 1
    44   25   43 1
@<TRIPOS>MOLECULE
ZINC05944397
   55    57     0     0     0
SMALL
USER_CHARGES

@<TRIPOS>ATOM
      1 C1          0.2215    3.6964   -0.7631 C.3       1 <0>        -0.1382
      2 C2         -0.1010    2.2480   -0.3900 C.3       1 <0>        -0.0322
      3 C3          0.4804    1.9354    0.9903 C.3       1 <0>        -0.1386
      4 C4         -1.6184    2.0549   -0.3600 C.3       1 <0>        -0.1455
      5 C5          0.5035    1.3196   -1.4117 C.ar      1 <0>        -0.0577
      6 C6         -0.3095    0.4768   -2.1462 C.ar      1 <0>        -0.1269
      7 C7          0.2450   -0.3749   -3.0834 C.ar      1 <0>        -0.0836
      8 C8          1.6123   -0.3833   -3.2862 C.ar      1 <0>        -0.1219
      9 C9          2.4252    0.4602   -2.5523 C.ar      1 <0>        -0.1041
     10 C10         1.8703    1.3148   -1.6182 C.ar      1 <0>        -0.1242
     11 C11         2.2169   -1.3125   -4.3072 C.3       1 <0>         0.1527
     12 N1          2.2751   -0.6387   -5.6067 N.pl3     1 <0>        -0.5489
     13 C12         3.4594    0.1409   -5.9753 C.3       1 <0>         0.1318
     14 C13         4.4501   -0.7520   -6.6770 C.ar      1 <0>        -0.1200
     15 C14         5.4048   -1.4339   -5.9459 C.ar      1 <0>        -0.0977
     16 C15         6.3135   -2.2529   -6.5895 C.ar      1 <0>        -0.1153
     17 C16         6.2673   -2.3904   -7.9642 C.ar      1 <0>        -0.1069
     18 C17         5.3121   -1.7092   -8.6953 C.ar      1 <0>        -0.1138
     19 C18         4.4006   -0.8935   -8.0512 C.ar      1 <0>        -0.1059
     20 C19         1.2390   -0.7360   -6.4632 C.2       1 <0>         0.5628
     21 S1         -0.1450   -1.6469   -6.0326 S.2       1 <0>        -0.6139
     22 N2          1.2926   -0.1161   -7.6588 N.pl3     1 <0>        -0.6297
     23 C20         0.2577   -0.2904   -8.5842 C.ar      1 <0>         0.0702
     24 C21        -1.0728   -0.2174   -8.1785 C.ar      1 <0>        -0.0257
     25 C22        -2.0619   -0.3963   -9.1314 C.ar      1 <0>        -0.1647
     26 C23        -1.6996   -0.6395  -10.4435 C.ar      1 <0>         0.1020
     27 N3         -0.4304   -0.7026  -10.7953 N.ar      1 <0>        -0.4762
     28 C24         0.5419   -0.5330   -9.9215 C.ar      1 <0>         0.0987
     29 H1          1.3026    3.8340   -0.7845 H         1 <0>         0.0559
     30 H2         -0.1926    3.9191   -1.7465 H         1 <0>         0.0553
     31 H3         -0.2157    4.3679   -0.0242 H         1 <0>         0.0594
     32 H4          0.0432    2.6069    1.7292 H         1 <0>         0.0592
     33 H5          0.2506    0.9036    1.2561 H         1 <0>         0.0570
     34 H6          1.5614    2.0730    0.9689 H         1 <0>         0.0563
     35 H7         -2.0326    2.2776   -1.3434 H         1 <0>         0.0587
     36 H8         -1.8482    1.0230   -0.0942 H         1 <0>         0.0598
     37 H9         -2.0556    2.7264    0.3789 H         1 <0>         0.0588
     38 H10        -1.3778    0.4834   -1.9877 H         1 <0>         0.1264
     39 H11        -0.3901   -1.0339   -3.6568 H         1 <0>         0.1489
     40 H12         3.4935    0.4533   -2.7106 H         1 <0>         0.1159
     41 H13         2.5050    1.9765   -1.0474 H         1 <0>         0.1193
     42 H14         3.2242   -1.5886   -3.9957 H         1 <0>         0.0927
     43 H15         1.6035   -2.2096   -4.3902 H         1 <0>         0.1217
     44 H16         3.1672    0.9530   -6.6410 H         1 <0>         0.0857
     45 H17         3.9163    0.5545   -5.0763 H         1 <0>         0.1085
     46 H18         5.4409   -1.3265   -4.8718 H         1 <0>         0.1243
     47 H19         7.0598   -2.7851   -6.0184 H         1 <0>         0.1274
     48 H20         6.9778   -3.0297   -8.4672 H         1 <0>         0.1268
     49 H21         5.2762   -1.8163   -9.7693 H         1 <0>         0.1271
     50 H22         3.6520   -0.3642   -8.6219 H         1 <0>         0.1129
     51 H23         2.0486    0.4509   -7.8777 H         1 <0>         0.4051
     52 H24        -1.3269   -0.0264   -7.1464 H         1 <0>         0.1585
     53 H25        -3.1042   -0.3467   -8.8528 H         1 <0>         0.1409
     54 H26        -2.4669   -0.7800  -11.1904 H         1 <0>         0.1594
     55 H27         1.5698   -0.5876  -10.2482 H         1 <0>         0.1514
@<TRIPOS>BOND
     1    1    2 1
     2    1   29 1
     3    1   30 1
     4    1   31 1
     5    2    3 1
     6    2    4 1
     7    2    5 1
     8    3   32 1
     9    3   33 1
    10    3   34 1
    11    4   35 1
    12    4   36 1
    13    4   37 1
    14    5   10 ar
    15    5    6 ar
    16    6    7 ar
    17    6   38 1
    18    7    8 ar
    19    7   39 1
    20    8    9 ar
    21    8   11 1
    22    9   10 ar
    23    9   40 1
    24   10   41 1
    25   11   12 1
    26   11   42 1
    27   11   43 1
    28   12   13 1
    29   12   20 1
    30   13   14 1
    31   13   44 1
    32   13   45 1
    33   14   19 ar
    34   14   15 ar
    35   15   16 ar
    36   15   46 1
    37   16   17 ar
    38   16   47 1
    39   17   18 ar
    40   17   48 1
    41   18   19 ar
    42   18   49 1
    43   19   50 1
    44   20   21 2
    45   20   22 1
    46   22   23 1
    47   22   51 1
    48   23   28 ar
    49   23   24 ar
    50   24   25 ar
    51   24   52 1
    52   25   26 ar
    53   25   53 1
    54   26   27 ar
    55   26   54 1
    56   27   28 ar
    57   28   55 1
@<TRIPOS>MOLECULE
ZINC66130385
   63    65     0     0     0
SMALL
USER_CHARGES

@<TRIPOS>ATOM
      1 C1          1.4494    0.9573    1.1970 C.3       1 <0>        -0.1485
      2 C2          0.8228   -0.3515    0.7118 C.3       1 <0>        -0.1328
      3 C3          0.8721   -0.4047   -0.8165 C.3       1 <0>         0.1402
      4 H1          0.1582    0.3086   -1.2281 H         1 <0>         0.0844
      5 C4          0.5143   -1.8151   -1.2894 C.3       1 <0>        -0.1680
      6 N1          2.2216   -0.0641   -1.2736 N.am      1 <0>        -0.6077
      7 C5          3.2842   -0.4198   -0.5242 C.2       1 <0>         0.5767
      8 O1          3.1226   -0.8831    0.5884 O.2       1 <0>        -0.5211
      9 C6          4.6433   -0.2427   -1.0656 C.ar      1 <0>        -0.2003
     10 C7          5.7741   -0.4144   -0.2704 C.ar      1 <0>        -0.0211
     11 C8          7.0261   -0.2289   -0.8189 C.ar      1 <0>        -0.1734
     12 C9          7.1650    0.1264   -2.1515 C.ar      1 <0>        -0.0526
     13 C10         6.0522    0.2971   -2.9523 C.ar      1 <0>        -0.1870
     14 C11         4.7883    0.1102   -2.4184 C.ar      1 <0>         0.2375
     15 N2          3.6401    0.2465   -3.1907 N.pl3     1 <0>        -0.7421
     16 C12         2.3928    0.6510   -2.5386 C.3       1 <0>         0.4594
     17 C13         1.2131    0.3377   -3.4611 C.3       1 <0>        -0.1361
     18 C14         1.3645    1.1212   -4.7665 C.3       1 <0>        -0.1524
     19 C15         2.4330    2.1337   -2.2720 C.ar      1 <0>        -0.1523
     20 C16         1.6080    2.6843   -1.3087 C.ar      1 <0>        -0.0679
     21 C17         1.6426    4.0433   -1.0627 C.ar      1 <0>        -0.1541
     22 C18         2.5065    4.8556   -1.7829 C.ar      1 <0>         0.1407
     23 C19         3.3336    4.3006   -2.7485 C.ar      1 <0>        -0.2122
     24 C20         3.2989    2.9403   -2.9871 C.ar      1 <0>        -0.0490
     25 O2          2.5421    6.1928   -1.5431 O.3       1 <0>        -0.3147
     26 C21         3.4558    6.9675   -2.3222 C.3       1 <0>         0.0579
     27 C22         3.3543    8.4385   -1.9139 C.3       1 <0>        -0.1151
     28 C23         4.3326    9.2680   -2.7481 C.3       1 <0>        -0.0935
     29 C24         3.9118    9.2261   -4.2185 C.3       1 <0>        -0.1537
     30 C25         4.3220   10.7165   -2.2556 C.3       1 <0>        -0.1479
     31 H2          2.4645    1.0400    0.8086 H         1 <0>         0.0608
     32 H3          0.8546    1.7986    0.8415 H         1 <0>         0.0456
     33 H4          1.4756    0.9655    2.2867 H         1 <0>         0.0517
     34 H5          1.3782   -1.1945    1.1229 H         1 <0>         0.1026
     35 H6         -0.2141   -0.4029    1.0439 H         1 <0>         0.0598
     36 H7         -0.5240   -2.0305   -1.0370 H         1 <0>         0.0688
     37 H8          0.6468   -1.8807   -2.3694 H         1 <0>         0.0593
     38 H9          1.1651   -2.5389   -0.7989 H         1 <0>         0.0615
     39 H10         5.6713   -0.6913    0.7685 H         1 <0>         0.1340
     40 H11         7.9049   -0.3620   -0.2054 H         1 <0>         0.1269
     41 H12         8.1513    0.2714   -2.5671 H         1 <0>         0.1272
     42 H13         6.1675    0.5750   -3.9896 H         1 <0>         0.1273
     43 H14         3.6635    0.0741   -4.1450 H         1 <0>         0.4112
     44 H15         1.1954   -0.7303   -3.6784 H         1 <0>         0.0831
     45 H16         0.2826    0.6243   -2.9712 H         1 <0>         0.0881
     46 H17         1.3822    2.1892   -4.5493 H         1 <0>         0.0658
     47 H18         2.2950    0.8347   -5.2565 H         1 <0>         0.0547
     48 H19         0.5240    0.8980   -5.4238 H         1 <0>         0.0655
     49 H20         0.9357    2.0516   -0.7483 H         1 <0>         0.1396
     50 H21         0.9975    4.4730   -0.3107 H         1 <0>         0.1308
     51 H22         4.0069    4.9308   -3.3105 H         1 <0>         0.1270
     52 H23         3.9457    2.5071   -3.7357 H         1 <0>         0.1252
     53 H24         4.4718    6.6120   -2.1506 H         1 <0>         0.0613
     54 H25         3.2089    6.8659   -3.3790 H         1 <0>         0.0647
     55 H26         2.3383    8.7940   -2.0855 H         1 <0>         0.0749
     56 H27         3.6012    8.5400   -0.8570 H         1 <0>         0.0746
     57 H28         5.3368    8.8567   -2.6457 H         1 <0>         0.0726
     58 H29         4.6087    9.8171   -4.8128 H         1 <0>         0.0581
     59 H30         3.9193    8.1942   -4.5693 H         1 <0>         0.0544
     60 H31         2.9075    9.6374   -4.3208 H         1 <0>         0.0577
     61 H32         4.6218   10.7463   -1.2080 H         1 <0>         0.0567
     62 H33         5.0189   11.3074   -2.8499 H         1 <0>         0.0583
     63 H34         3.3177   11.1277   -2.3579 H         1 <0>         0.0569
@<TRIPOS>BOND
     1    1    2 1
     2    1   31 1
     3    1   32 1
     4    1   33 1
     5    2    3 1
     6    2   34 1
     7    2   35 1
     8    3    4 1
     9    3    5 1
    10    3    6 1
    11    5   36 1
    12    5   37 1
    13    5   38 1
    14    6   16 1
    15    6    7 am
    16    7    8 2
    17    7    9 1
    18    9   14 ar
    19    9   10 ar
    20   10   11 ar
    21   10   39 1
    22   11   12 ar
    23   11   40 1
    24   12   13 ar
    25   12   41 1
    26   13   14 ar
    27   13   42 1
    28   14   15 1
    29   15   16 1
    30   15   43 1
    31   16   17 1
    32   16   19 1
    33   17   18 1
    34   17   44 1
    35   17   45 1
    36   18   46 1
    37   18   47 1
    38   18   48 1
    39   19   24 ar
    40   19   20 ar
    41   20   21 ar
    42   20   49 1
    43   21   22 ar
    44   21   50 1
    45   22   23 ar
    46   22   25 1
    47   23   24 ar
    48   23   51 1
    49   24   52 1
    50   25   26 1
    51   26   27 1
    52   26   53 1
    53   26   54 1
    54   27   28 1
    55   27   55 1
    56   27   56 1
    57   28   29 1
    58   28   30 1
    59   28   57 1
    60   29   58 1
    61   29   59 1
    62   29   60 1
    63   30   61 1
    64   30   62 1
    65   30   63 1
@<TRIPOS>MOLECULE
ZINC06649030
   45    48     0     0     0
SMALL
USER_CHARGES
2-[[4-allyl-5-[(2-fluorophenoxy)methyl]-1,2,4-triazol-3-yl]sulfanylmethyl]benzothiazole
@<TRIPOS>ATOM
      1 C1         -4.4643   10.6332   -5.1656 C.2       1 <0>        -0.1499
      2 C2         -3.8771    9.9218   -4.2354 C.2       1 <0>        -0.1897
      3 C3         -2.5078   10.3110   -3.7409 C.3       1 <0>         0.1284
      4 N1         -2.5421   10.4731   -2.2853 N.pl3     1 <0>        -0.4446
      5 C4         -2.8199   11.6164   -1.5880 C.2       1 <0>         0.1816
      6 N2         -2.7383   11.3269   -0.3202 N.2       1 <0>        -0.2486
      7 N3         -2.4356   10.0870   -0.1693 N.2       1 <0>        -0.2848
      8 C5         -2.3066    9.5134   -1.3431 C.2       1 <0>         0.1619
      9 S1         -1.8992    7.8260   -1.6455 S.3       1 <0>         0.0475
     10 C6         -1.7403    7.2311    0.0565 C.3       1 <0>        -0.0232
     11 C7         -1.3846    5.7667    0.0457 C.2       1 <0>         0.1282
     12 N4         -0.2005    5.2225    0.0315 N.2       1 <0>        -0.4816
     13 C8         -0.0173    3.8857    0.0226 C.ar      1 <0>         0.0715
     14 C9          1.1900    3.1525    0.0072 C.ar      1 <0>        -0.0517
     15 C10         1.1764    1.7921    0.0005 C.ar      1 <0>        -0.1117
     16 C11        -0.0126    1.0758    0.0080 C.ar      1 <0>        -0.0852
     17 C12        -1.2154    1.7566    0.0173 C.ar      1 <0>        -0.0691
     18 C13        -1.2121    3.1303    0.0299 C.ar      1 <0>        -0.1457
     19 S2         -2.4538    4.3987    0.0486 S.3       1 <0>         0.0581
     20 C14        -3.1524   12.9630   -2.1770 C.3       1 <0>         0.1523
     21 O1         -1.9484   13.7067   -2.3754 O.3       1 <0>        -0.3027
     22 C15        -2.0727   14.9532   -2.9037 C.ar      1 <0>         0.0956
     23 C16        -3.3265   15.4475   -3.2297 C.ar      1 <0>        -0.1823
     24 C17        -3.4510   16.7164   -3.7626 C.ar      1 <0>        -0.0874
     25 C18        -2.3261   17.4902   -3.9807 C.ar      1 <0>        -0.1243
     26 C19        -1.0737   16.9993   -3.6616 C.ar      1 <0>        -0.1147
     27 C20        -0.9434   15.7317   -3.1234 C.ar      1 <0>         0.0735
     28 F1          0.2804   15.2513   -2.8122 F         1 <0>        -0.1303
     29 H1         -5.4456   10.3542   -5.5200 H         1 <0>         0.1126
     30 H2         -3.9670   11.4985   -5.5782 H         1 <0>         0.1031
     31 H3         -4.3744    9.0564   -3.8228 H         1 <0>         0.1232
     32 H4         -2.2078   11.2509   -4.2042 H         1 <0>         0.1075
     33 H5         -1.7919    9.5320   -4.0029 H         1 <0>         0.1118
     34 H6         -2.6859    7.3715    0.5803 H         1 <0>         0.1315
     35 H7         -0.9563    7.7917    0.5656 H         1 <0>         0.1367
     36 H8          2.1339    3.6773    0.0010 H         1 <0>         0.1359
     37 H9          2.1139    1.2562   -0.0114 H         1 <0>         0.1376
     38 H10         0.0021   -0.0041    0.0020 H         1 <0>         0.1421
     39 H11        -2.1490    1.2137    0.0191 H         1 <0>         0.1374
     40 H12        -3.6570   12.8267   -3.1335 H         1 <0>         0.0869
     41 H13        -3.8068   13.5062   -1.4952 H         1 <0>         0.1067
     42 H14        -4.2057   14.8426   -3.0637 H         1 <0>         0.1386
     43 H15        -4.4280   17.1026   -4.0130 H         1 <0>         0.1355
     44 H16        -2.4260   18.4798   -4.4015 H         1 <0>         0.1373
     45 H17        -0.1965   17.6057   -3.8329 H         1 <0>         0.1448
@<TRIPOS>BOND
     1    1    2 2
     2    1   29 1
     3    1   30 1
     4    2    3 1
     5    2   31 1
     6    3    4 1
     7    3   32 1
     8    3   33 1
     9    4    8 1
    10    4    5 1
    11    5    6 2
    12    5   20 1
    13    6    7 1
    14    7    8 2
    15    8    9 1
    16    9   10 1
    17   10   11 1
    18   10   34 1
    19   10   35 1
    20   11   19 1
    21   11   12 2
    22   12   13 1
    23   13   18 ar
    24   13   14 ar
    25   14   15 ar
    26   14   36 1
    27   15   16 ar
    28   15   37 1
    29   16   17 ar
    30   16   38 1
    31   17   18 ar
    32   17   39 1
    33   18   19 1
    34   20   21 1
    35   20   40 1
    36   20   41 1
    37   21   22 1
    38   22   27 ar
    39   22   23 ar
    40   23   24 ar
    41   23   42 1
    42   24   25 ar
    43   24   43 1
    44   25   26 ar
    45   25   44 1
    46   26   27 ar
    47   26   45 1
    48   27   28 1
@<TRIPOS>MOLECULE
ZINC15568284
   47    49     0     0     0
SMALL
USER_CHARGES
[4-(1,3-dithiolan-2-yl)phenyl] (E)-3-[4-(cyanomethoxy)-3-methoxy-phenyl]prop-2-enoate
@<TRIPOS>ATOM
      1 C1         -3.5507   -0.8273    0.2340 C.3       1 <0>         0.0229
      2 O1         -2.3605   -0.0379    0.1856 O.3       1 <0>        -0.3037
      3 C2         -1.1778   -0.7069    0.1296 C.ar      1 <0>         0.1039
      4 C3         -1.1655   -2.0876    0.1222 C.ar      1 <0>        -0.1410
      5 C4          0.0539   -2.7727    0.0650 C.ar      1 <0>        -0.0829
      6 C5          1.2541   -2.0541    0.0157 C.ar      1 <0>        -0.0835
      7 C6          1.2321   -0.6769    0.0182 C.ar      1 <0>        -0.1758
      8 C7          0.0222    0.0018    0.0803 C.ar      1 <0>         0.1221
      9 O2          0.0072    1.3599    0.0873 O.3       1 <0>        -0.2941
     10 C8          1.2720    2.0229    0.0349 C.3       1 <0>         0.1579
     11 C9          1.0633    3.4799    0.0508 C.1       1 <0>         0.2054
     12 N1          0.9022    4.6044    0.0632 N.1       1 <0>        -0.3870
     13 C10         0.0739   -4.2421    0.0572 C.2       1 <0>         0.0222
     14 C11         1.2519   -4.9014    0.0020 C.2       1 <0>        -0.2117
     15 C12         1.2712   -6.3188   -0.0055 C.2       1 <0>         0.5024
     16 O3          0.2270   -6.9417    0.0379 O.2       1 <0>        -0.4959
     17 O4          2.4478   -6.9773   -0.0606 O.3       1 <0>        -0.2952
     18 C13         2.4256   -8.3326    0.0369 C.ar      1 <0>         0.1015
     19 C14         2.7907   -8.9499    1.2247 C.ar      1 <0>        -0.1188
     20 C15         2.7609  -10.3275    1.3233 C.ar      1 <0>        -0.0606
     21 C16         2.3800  -11.0916    0.2356 C.ar      1 <0>        -0.0718
     22 C17         2.0216  -10.4791   -0.9511 C.ar      1 <0>        -0.0779
     23 C18         2.0434   -9.1016   -1.0528 C.ar      1 <0>        -0.1195
     24 C19         2.3549  -12.5945    0.3440 C.3       1 <0>         0.0485
     25 S1          1.2909  -13.1323    1.7436 S.3       1 <0>        -0.2550
     26 C20         2.2502  -14.5297    2.4582 C.3       1 <0>        -0.0800
     27 C21         3.7258  -14.0593    2.4423 C.3       1 <0>        -0.0811
     28 S2          4.0009  -13.2420    0.8304 S.3       1 <0>        -0.2571
     29 H1         -3.5305   -1.4611    1.1206 H         1 <0>         0.0582
     30 H2         -4.4203   -0.1714    0.2760 H         1 <0>         0.1045
     31 H3         -3.6092   -1.4516   -0.6576 H         1 <0>         0.0582
     32 H4         -2.0942   -2.6375    0.1607 H         1 <0>         0.1451
     33 H5          2.1967   -2.5793   -0.0288 H         1 <0>         0.1401
     34 H6          2.1585   -0.1234   -0.0244 H         1 <0>         0.1468
     35 H7          1.8707    1.7321    0.8981 H         1 <0>         0.1136
     36 H8          1.7927    1.7404   -0.8801 H         1 <0>         0.1135
     37 H9         -0.8530   -4.7950    0.0957 H         1 <0>         0.1411
     38 H10         2.1789   -4.3485   -0.0364 H         1 <0>         0.1459
     39 H11         3.0929   -8.3538    2.0730 H         1 <0>         0.1368
     40 H12         3.0397  -10.8083    2.2493 H         1 <0>         0.1364
     41 H13         1.7241  -11.0781   -1.7990 H         1 <0>         0.1345
     42 H14         1.7627   -8.6237   -1.9797 H         1 <0>         0.1334
     43 H15         2.0220  -13.0438   -0.5916 H         1 <0>         0.1353
     44 H16         2.1305  -15.4214    1.8428 H         1 <0>         0.1038
     45 H17         1.9276  -14.7296    3.4800 H         1 <0>         0.1295
     46 H18         4.3915  -14.9163    2.5443 H         1 <0>         0.1247
     47 H19         3.9013  -13.3526    3.2535 H         1 <0>         0.1041
@<TRIPOS>BOND
     1    1    2 1
     2    1   29 1
     3    1   30 1
     4    1   31 1
     5    2    3 1
     6    3    8 ar
     7    3    4 ar
     8    4    5 ar
     9    4   32 1
    10    5    6 ar
    11    5   13 1
    12    6    7 ar
    13    6   33 1
    14    7    8 ar
    15    7   34 1
    16    8    9 1
    17    9   10 1
    18   10   11 1
    19   10   35 1
    20   10   36 1
    21   11   12 3
    22   13   14 2
    23   13   37 1
    24   14   15 1
    25   14   38 1
    26   15   16 2
    27   15   17 1
    28   17   18 1
    29   18   23 ar
    30   18   19 ar
    31   19   20 ar
    32   19   39 1
    33   20   21 ar
    34   20   40 1
    35   21   22 ar
    36   21   24 1
    37   22   23 ar
    38   22   41 1
    39   23   42 1
    40   24   28 1
    41   24   25 1
    42   24   43 1
    43   25   26 1
    44   26   27 1
    45   26   44 1
    46   26   45 1
    47   27   28 1
    48   27   46 1
    49   27   47 1
@<TRIPOS>MOLECULE
ZINC34897596
   64    66     0     0     0
SMALL
USER_CHARGES

@<TRIPOS>ATOM
      1 C1         -2.0826   -3.3349    4.2068 C.3       1 <0>        -0.1540
      2 C2         -0.8299   -2.5071    4.5006 C.3       1 <0>        -0.1364
      3 C3         -0.5249   -1.6018    3.3055 C.3       1 <0>         0.1339
      4 H1         -0.5190   -2.1960    2.3917 H         1 <0>         0.0991
      5 C4          0.8450   -0.9480    3.4975 C.3       1 <0>        -0.1727
      6 N1         -1.5524   -0.5623    3.2055 N.am      1 <0>        -0.5818
      7 C5         -1.5822    0.5341    4.1767 C.3       1 <0>         0.0969
      8 C6         -0.8204    1.7126    3.6273 C.2       1 <0>         0.5087
      9 O1         -0.2828    1.6351    2.5430 O.2       1 <0>        -0.5146
     10 N2         -0.7366    2.8528    4.3410 N.am      1 <0>        -0.6020
     11 C7          0.0039    3.9985    3.8070 C.3       1 <0>         0.1529
     12 C8         -0.9483    4.9244    3.0949 C.ar      1 <0>        -0.1204
     13 C9         -1.2043    4.7493    1.7477 C.ar      1 <0>        -0.0624
     14 C10        -2.0777    5.5974    1.0938 C.ar      1 <0>        -0.1531
     15 C11        -2.6965    6.6229    1.7884 C.ar      1 <0>         0.1043
     16 C12        -2.4394    6.7974    3.1377 C.ar      1 <0>        -0.1557
     17 C13        -1.5696    5.9447    3.7907 C.ar      1 <0>        -0.0810
     18 F1         -3.5502    7.4530    1.1501 F         1 <0>        -0.1387
     19 C14        -1.3860    2.9465    5.6509 C.3       1 <0>         0.1901
     20 C15        -0.3739    2.6752    6.7339 C.2       1 <0>        -0.1793
     21 C16         0.3732    3.5556    7.4441 C.2       1 <0>        -0.0989
     22 C17         1.2471    3.0744    8.4008 C.2       1 <0>        -0.1564
     23 C18         1.3314    1.7364    8.6005 C.2       1 <0>        -0.1585
     24 S1          0.1468    1.1115    7.4201 S.3       1 <0>         0.0332
     25 C19         0.2530    5.0368    7.1940 C.3       1 <0>        -0.1094
     26 C20        -2.4703   -0.6147    2.2200 C.2       1 <0>         0.5720
     27 O2         -3.2926    0.2733    2.1076 O.2       1 <0>        -0.5255
     28 C21        -2.4770   -1.7523    1.2758 C.ar      1 <0>        -0.1225
     29 C22        -1.5533   -1.8011    0.2305 C.ar      1 <0>        -0.0825
     30 C23        -1.5647   -2.8657   -0.6469 C.ar      1 <0>        -0.1203
     31 C24        -2.4892   -3.8834   -0.4926 C.ar      1 <0>        -0.0687
     32 C25        -3.4078   -3.8409    0.5412 C.ar      1 <0>        -0.1209
     33 C26        -3.4033   -2.7851    1.4292 C.ar      1 <0>        -0.0762
     34 C27        -2.4960   -5.0430   -1.4551 C.3       1 <0>        -0.1195
     35 H2         -1.8936   -3.9906    3.3568 H         1 <0>         0.0577
     36 H3         -2.3340   -3.9361    5.0805 H         1 <0>         0.0567
     37 H4         -2.9125   -2.6679    3.9736 H         1 <0>         0.0528
     38 H5         -0.9985   -1.8948    5.3865 H         1 <0>         0.0656
     39 H6          0.0139   -3.1745    4.6755 H         1 <0>         0.0776
     40 H7          1.6272   -1.6906    3.3407 H         1 <0>         0.0684
     41 H8          0.9645   -0.1371    2.7789 H         1 <0>         0.0810
     42 H9          0.9192   -0.5503    4.5096 H         1 <0>         0.0561
     43 H10        -2.6157    0.8251    4.3646 H         1 <0>         0.1100
     44 H11        -1.1218    0.2064    5.1088 H         1 <0>         0.1069
     45 H12         0.4864    4.5328    4.6254 H         1 <0>         0.0904
     46 H13         0.7611    3.6470    3.1062 H         1 <0>         0.0986
     47 H14        -0.7212    3.9495    1.2060 H         1 <0>         0.1361
     48 H15        -2.2772    5.4606    0.0412 H         1 <0>         0.1357
     49 H16        -2.9212    7.5971    3.6805 H         1 <0>         0.1364
     50 H17        -1.3723    6.0778    4.8442 H         1 <0>         0.1307
     51 H18        -1.7983    3.9471    5.7813 H         1 <0>         0.1051
     52 H19        -2.1890    2.2119    5.7117 H         1 <0>         0.0974
     53 H20         1.8541    3.7543    8.9802 H         1 <0>         0.1357
     54 H21         1.9513    1.1903    9.2961 H         1 <0>         0.1869
     55 H22        -0.4486    5.4699    7.9069 H         1 <0>         0.0742
     56 H23         1.2294    5.5060    7.3143 H         1 <0>         0.0703
     57 H24        -0.1088    5.2059    6.1797 H         1 <0>         0.0666
     58 H25        -0.8316   -1.0069    0.1086 H         1 <0>         0.1282
     59 H26        -0.8505   -2.9046   -1.4561 H         1 <0>         0.1284
     60 H27        -4.1271   -4.6384    0.6559 H         1 <0>         0.1285
     61 H28        -4.1177   -2.7556    2.2386 H         1 <0>         0.1260
     62 H29        -1.8393   -5.8288   -1.0818 H         1 <0>         0.0741
     63 H30        -3.5102   -5.4311   -1.5491 H         1 <0>         0.0690
     64 H31        -2.1434   -4.7076   -2.4304 H         1 <0>         0.0689
@<TRIPOS>BOND
     1    1    2 1
     2    1   35 1
     3    1   36 1
     4    1   37 1
     5    2    3 1
     6    2   38 1
     7    2   39 1
     8    3    4 1
     9    3    5 1
    10    3    6 1
    11    5   40 1
    12    5   41 1
    13    5   42 1
    14    6    7 1
    15    6   26 am
    16    7    8 1
    17    7   43 1
    18    7   44 1
    19    8    9 2
    20    8   10 am
    21   10   11 1
    22   10   19 1
    23   11   12 1
    24   11   45 1
    25   11   46 1
    26   12   17 ar
    27   12   13 ar
    28   13   14 ar
    29   13   47 1
    30   14   15 ar
    31   14   48 1
    32   15   16 ar
    33   15   18 1
    34   16   17 ar
    35   16   49 1
    36   17   50 1
    37   19   20 1
    38   19   51 1
    39   19   52 1
    40   20   24 1
    41   20   21 2
    42   21   22 1
    43   21   25 1
    44   22   23 2
    45   22   53 1
    46   23   24 1
    47   23   54 1
    48   25   55 1
    49   25   56 1
    50   25   57 1
    51   26   27 2
    52   26   28 1
    53   28   33 ar
    54   28   29 ar
    55   29   30 ar
    56   29   58 1
    57   30   31 ar
    58   30   59 1
    59   31   32 ar
    60   31   34 1
    61   32   33 ar
    62   32   60 1
    63   33   61 1
    64   34   62 1
    65   34   63 1
    66   34   64 1
@<TRIPOS>MOLECULE
ZINC35972466
   63    66     0     0     0
SMALL
USER_CHARGES

@<TRIPOS>ATOM
      1 C1         -2.3931    0.9309    1.6017 C.3       1 <0>        -0.1500
      2 C2         -2.3962   -0.5674    1.2920 C.3       1 <0>        -0.1383
      3 C3         -2.9515   -0.7961   -0.1152 C.3       1 <0>         0.1164
      4 N1         -2.9545   -2.2307   -0.4119 N.am      1 <0>        -0.6121
      5 C4         -4.1273   -3.0445   -0.0823 C.3       1 <0>         0.1012
      6 C5         -5.0330   -3.1548   -1.3105 C.3       1 <0>        -0.1474
      7 C6         -6.2578   -4.0046   -0.9663 C.3       1 <0>        -0.1527
      8 C7         -1.8782   -2.8020   -0.9880 C.2       1 <0>         0.5250
      9 O1         -0.8711   -2.1514   -1.1703 O.2       1 <0>        -0.4966
     10 C8         -1.9263   -4.2492   -1.4056 C.3       1 <0>        -0.0833
     11 H1         -2.8092   -4.7207   -0.9740 H         1 <0>         0.1155
     12 C9         -0.6911   -4.9534   -0.9092 C.ar      1 <0>        -0.0340
     13 C10        -0.0230   -4.4988    0.2075 C.ar      1 <0>        -0.1046
     14 C11         1.1028   -5.1658    0.6588 C.ar      1 <0>        -0.0865
     15 C12         1.5633   -6.2903   -0.0032 C.ar      1 <0>        -0.1236
     16 C13         0.9061   -6.7524   -1.1260 C.ar      1 <0>        -0.0583
     17 C14        -0.2228   -6.0795   -1.5884 C.ar      1 <0>        -0.1318
     18 C15        -0.9273   -6.5268   -2.8085 C.2       1 <0>         0.5699
     19 O2         -0.6930   -7.6193   -3.2871 O.2       1 <0>        -0.5201
     20 N2         -1.8317   -5.7118   -3.3843 N.am      1 <0>        -0.5747
     21 C16        -2.0001   -4.3344   -2.9280 C.3       1 <0>         0.2006
     22 H2         -2.9703   -3.9656   -3.2606 H         1 <0>         0.1084
     23 C17        -0.9145   -3.4764   -3.5250 C.ar      1 <0>        -0.0565
     24 C18         0.3817   -3.9531   -3.5969 C.ar      1 <0>        -0.1298
     25 C19         1.3798   -3.1684   -4.1440 C.ar      1 <0>        -0.0753
     26 C20         1.0845   -1.9054   -4.6200 C.ar      1 <0>        -0.1989
     27 C21        -0.2149   -1.4250   -4.5489 C.ar      1 <0>         0.1334
     28 C22        -1.2160   -2.2169   -4.0049 C.ar      1 <0>        -0.1252
     29 O3         -0.5079   -0.1831   -5.0165 O.3       1 <0>        -0.3185
     30 C23         0.5714    0.5737   -5.5684 C.3       1 <0>         0.0282
     31 C24        -2.6566   -6.2143   -4.4858 C.3       1 <0>         0.0794
     32 C25        -3.4229   -5.1861   -5.3204 C.3       1 <0>        -0.1855
     33 C26        -4.1751   -6.0923   -4.3438 C.3       1 <0>        -0.1905
     34 H3         -1.9975    1.0938    2.6043 H         1 <0>         0.0575
     35 H4         -1.7682    1.4508    0.8756 H         1 <0>         0.0569
     36 H5         -3.4115    1.3155    1.5461 H         1 <0>         0.0551
     37 H6         -1.3778   -0.9520    1.3476 H         1 <0>         0.0664
     38 H7         -3.0211   -1.0873    2.0181 H         1 <0>         0.0617
     39 H8         -3.9699   -0.4115   -0.1709 H         1 <0>         0.0777
     40 H9         -2.3266   -0.2762   -0.8414 H         1 <0>         0.0852
     41 H10        -3.8047   -4.0402    0.2219 H         1 <0>         0.0786
     42 H11        -4.6771   -2.5756    0.7337 H         1 <0>         0.0882
     43 H12        -5.3555   -2.1590   -1.6147 H         1 <0>         0.0716
     44 H13        -4.4831   -3.6237   -2.1265 H         1 <0>         0.0611
     45 H14        -5.9353   -5.0003   -0.6621 H         1 <0>         0.0570
     46 H15        -6.8077   -3.5357   -0.1503 H         1 <0>         0.0590
     47 H16        -6.9030   -4.0832   -1.8413 H         1 <0>         0.0613
     48 H17        -0.3775   -3.6225    0.7298 H         1 <0>         0.1256
     49 H18         1.6248   -4.8065    1.5333 H         1 <0>         0.1297
     50 H19         2.4394   -6.8076    0.3591 H         1 <0>         0.1332
     51 H20         1.2651   -7.6301   -1.6429 H         1 <0>         0.1391
     52 H21         0.6146   -4.9398   -3.2248 H         1 <0>         0.1188
     53 H22         2.3913   -3.5429   -4.1991 H         1 <0>         0.1227
     54 H23         1.8647   -1.2926   -5.0466 H         1 <0>         0.1261
     55 H24        -2.2294   -1.8470   -3.9529 H         1 <0>         0.1209
     56 H25         0.2016    1.5428   -5.9033 H         1 <0>         0.0999
     57 H26         1.3384    0.7204   -4.8081 H         1 <0>         0.0553
     58 H27         0.9972    0.0350   -6.4149 H         1 <0>         0.0548
     59 H28        -2.2683   -7.0927   -5.0012 H         1 <0>         0.1425
     60 H29        -3.3133   -4.1359   -5.0500 H         1 <0>         0.0989
     61 H30        -3.5387   -5.3880   -6.3853 H         1 <0>         0.1082
     62 H31        -4.7858   -6.8903   -4.7661 H         1 <0>         0.1072
     63 H32        -4.5604   -5.6382   -3.4308 H         1 <0>         0.0962
@<TRIPOS>BOND
     1    1    2 1
     2    1   34 1
     3    1   35 1
     4    1   36 1
     5    2    3 1
     6    2   37 1
     7    2   38 1
     8    3    4 1
     9    3   39 1
    10    3   40 1
    11    4    5 1
    12    4    8 am
    13    5    6 1
    14    5   41 1
    15    5   42 1
    16    6    7 1
    17    6   43 1
    18    6   44 1
    19    7   45 1
    20    7   46 1
    21    7   47 1
    22    8    9 2
    23    8   10 1
    24   10   11 1
    25   10   21 1
    26   10   12 1
    27   12   17 ar
    28   12   13 ar
    29   13   14 ar
    30   13   48 1
    31   14   15 ar
    32   14   49 1
    33   15   16 ar
    34   15   50 1
    35   16   17 ar
    36   16   51 1
    37   17   18 1
    38   18   19 2
    39   18   20 am
    40   20   21 1
    41   20   31 1
    42   21   22 1
    43   21   23 1
    44   23   28 ar
    45   23   24 ar
    46   24   25 ar
    47   24   52 1
    48   25   26 ar
    49   25   53 1
    50   26   27 ar
    51   26   54 1
    52   27   28 ar
    53   27   29 1
    54   28   55 1
    55   29   30 1
    56   30   56 1
    57   30   57 1
    58   30   58 1
    59   31   33 1
    60   31   32 1
    61   31   59 1
    62   32   33 1
    63   32   60 1
    64   32   61 1
    65   33   62 1
    66   33   63 1
@<TRIPOS>MOLECULE
ZINC59324618
   54    57     0     0     0
SMALL
USER_CHARGES

@<TRIPOS>ATOM
      1 C1         -0.0611    1.5392    0.0154 C.3       1 <0>        -0.1488
      2 C2          0.0058    0.0107    0.0023 C.3       1 <0>        -0.0191
      3 H1         -1.0049   -0.3972    0.0074 H         1 <0>         0.1118
      4 C3          0.7478   -0.4701    1.2226 C.ar      1 <0>        -0.1279
      5 C4          0.1274   -1.3083    2.1366 C.ar      1 <0>        -0.0544
      6 C5          0.8486   -1.7255    3.2446 C.ar      1 <0>        -0.1695
      7 C6          2.1529   -1.2952    3.4004 C.ar      1 <0>         0.1052
      8 N1          2.7107   -0.4976    2.5109 N.ar      1 <0>        -0.4803
      9 C7          2.0569   -0.0859    1.4421 C.ar      1 <0>         0.1173
     10 S1          0.8741   -0.5437   -1.4908 S.3       1 <0>        -0.0009
     11 C8         -0.1802   -0.0389   -2.8092 C.2       1 <0>         0.1599
     12 N2         -1.3234    0.5982   -2.6927 N.2       1 <0>        -0.2888
     13 N3         -1.8306    0.8110   -3.8541 N.2       1 <0>        -0.2536
     14 C9         -1.0425    0.3229   -4.7838 C.2       1 <0>         0.2392
     15 N4          0.0416   -0.2318   -4.1436 N.pl3     1 <0>        -0.4556
     16 C10         1.1922   -0.8940   -4.7632 C.3       1 <0>         0.1087
     17 C11         0.8542   -2.3627   -5.0270 C.3       1 <0>        -0.0922
     18 C12         2.0378   -3.0438   -5.6644 C.ar      1 <0>        -0.0871
     19 C13         2.1670   -3.0607   -7.0405 C.ar      1 <0>        -0.1118
     20 C14         3.2527   -3.6856   -7.6252 C.ar      1 <0>        -0.1170
     21 C15         4.2094   -4.2931   -6.8336 C.ar      1 <0>        -0.1177
     22 C16         4.0806   -4.2754   -5.4573 C.ar      1 <0>        -0.1164
     23 C17         2.9971   -3.6469   -4.8726 C.ar      1 <0>        -0.1115
     24 C18        -1.2739    0.3656   -6.2427 C.ar      1 <0>        -0.0572
     25 C19        -0.2558    0.7798   -7.1024 C.ar      1 <0>        -0.0607
     26 C20        -0.4777    0.8176   -8.4634 C.ar      1 <0>        -0.1548
     27 C21        -1.7070    0.4466   -8.9803 C.ar      1 <0>        -0.0596
     28 C22        -2.7232    0.0350   -8.1385 C.ar      1 <0>        -0.2088
     29 C23        -2.5139   -0.0148   -6.7700 C.ar      1 <0>         0.1712
     30 O1         -3.5098   -0.4254   -5.9425 O.3       1 <0>        -0.2973
     31 C24        -4.7475   -0.7981   -6.5519 C.3       1 <0>         0.0244
     32 H2          0.9497    1.9472    0.0102 H         1 <0>         0.0673
     33 H3         -0.5977    1.8870   -0.8673 H         1 <0>         0.0816
     34 H4         -0.5828    1.8724    0.9126 H         1 <0>         0.0714
     35 H5         -0.8935   -1.6283    1.9890 H         1 <0>         0.1386
     36 H6          0.3969   -2.3782    3.9770 H         1 <0>         0.1403
     37 H7          2.7215   -1.6157    4.2608 H         1 <0>         0.1596
     38 H8          2.5488    0.5629    0.7325 H         1 <0>         0.1584
     39 H9          1.4310   -0.4011   -5.7056 H         1 <0>         0.1019
     40 H10         2.0502   -0.8332   -4.0937 H         1 <0>         0.1029
     41 H11         0.6154   -2.8555   -4.0846 H         1 <0>         0.0835
     42 H12        -0.0039   -2.4234   -5.6965 H         1 <0>         0.0814
     43 H13         1.4196   -2.5861   -7.6590 H         1 <0>         0.1220
     44 H14         3.3534   -3.6994   -8.7004 H         1 <0>         0.1238
     45 H15         5.0572   -4.7819   -7.2903 H         1 <0>         0.1232
     46 H16         4.8278   -4.7504   -4.8389 H         1 <0>         0.1243
     47 H17         2.8984   -3.6298   -3.7972 H         1 <0>         0.1235
     48 H18         0.7045    1.0707   -6.7028 H         1 <0>         0.1292
     49 H19         0.3107    1.1382   -9.1282 H         1 <0>         0.1326
     50 H20        -1.8732    0.4792  -10.0469 H         1 <0>         0.1318
     51 H21        -3.6801   -0.2524   -8.5486 H         1 <0>         0.1367
     52 H22        -5.4542   -1.1048   -5.7808 H         1 <0>         0.1031
     53 H23        -5.1535    0.0525   -7.0994 H         1 <0>         0.0595
     54 H24        -4.5787   -1.6262   -7.2402 H         1 <0>         0.0565
@<TRIPOS>BOND
     1    1    2 1
     2    1   32 1
     3    1   33 1
     4    1   34 1
     5    2    3 1
     6    2    4 1
     7    2   10 1
     8    4    9 ar
     9    4    5 ar
    10    5    6 ar
    11    5   35 1
    12    6    7 ar
    13    6   36 1
    14    7    8 ar
    15    7   37 1
    16    8    9 ar
    17    9   38 1
    18   10   11 1
    19   11   15 1
    20   11   12 2
    21   12   13 1
    22   13   14 2
    23   14   15 1
    24   14   24 1
    25   15   16 1
    26   16   17 1
    27   16   39 1
    28   16   40 1
    29   17   18 1
    30   17   41 1
    31   17   42 1
    32   18   23 ar
    33   18   19 ar
    34   19   20 ar
    35   19   43 1
    36   20   21 ar
    37   20   44 1
    38   21   22 ar
    39   21   45 1
    40   22   23 ar
    41   22   46 1
    42   23   47 1
    43   24   29 ar
    44   24   25 ar
    45   25   26 ar
    46   25   48 1
    47   26   27 ar
    48   26   49 1
    49   27   28 ar
    50   27   50 1
    51   28   29 ar
    52   28   51 1
    53   29   30 1
    54   30   31 1
    55   31   52 1
    56   31   53 1
    57   31   54 1
@<TRIPOS>MOLECULE
ZINC10020347
   52    55     0     0     0
SMALL
USER_CHARGES
N-(4-fluorobenzothiazol-2-yl)-4-phenylsulfonyl-N-(3-pyridylmethyl)butanamide
@<TRIPOS>ATOM
      1 C1         -0.0593    4.5221    0.0265 C.ar      1 <0>        -0.0632
      2 C2          1.1470    3.8473    0.0114 C.ar      1 <0>        -0.1394
      3 C3          1.1658    2.4651    0.0042 C.ar      1 <0>        -0.0249
      4 C4         -0.0218    1.7577    0.0117 C.ar      1 <0>        -0.6617
      5 C5         -1.2282    2.4326    0.0211 C.ar      1 <0>        -0.0248
      6 C6         -1.2469    3.8147    0.0336 C.ar      1 <0>        -0.1394
      7 S1          0.0021   -0.0041    0.0020 S.o2      1 <0>         2.4975
      8 O1         -1.2332   -0.3802   -0.5911 O.2       1 <0>        -0.9302
      9 O2          1.2357   -0.3466   -0.6145 O.2       1 <0>        -0.9304
     10 C7          0.0251   -0.4796    1.7524 C.3       1 <0>        -0.6155
     11 C8          0.0470   -2.0052    1.8662 C.3       1 <0>        -0.0934
     12 C9          0.0664   -2.4063    3.3426 C.3       1 <0>        -0.1549
     13 C10         0.0880   -3.9090    3.4546 C.2       1 <0>         0.5237
     14 O3          0.0878   -4.5918    2.4524 O.2       1 <0>        -0.4796
     15 N1          0.1074   -4.4940    4.6687 N.am      1 <0>        -0.4988
     16 C11         0.1283   -5.9548    4.7776 C.3       1 <0>         0.1571
     17 C12         1.5561   -6.4363    4.8015 C.ar      1 <0>        -0.1752
     18 C13         2.2094   -6.7553    3.6206 C.ar      1 <0>        -0.0492
     19 C14         3.5240   -7.1897    3.6903 C.ar      1 <0>        -0.1773
     20 C15         4.1324   -7.2993    4.9267 C.ar      1 <0>         0.1090
     21 N2          3.4786   -6.9920    6.0297 N.ar      1 <0>        -0.4867
     22 C16         2.2290   -6.5711    6.0008 C.ar      1 <0>         0.1275
     23 C17         0.1076   -3.7137    5.8139 C.2       1 <0>         0.3700
     24 N3          0.1189   -4.0947    7.0695 N.2       1 <0>        -0.5224
     25 C18         0.1225   -3.2153    8.0953 C.ar      1 <0>         0.0723
     26 C19         0.1399   -3.4918    9.4839 C.ar      1 <0>         0.1527
     27 C20         0.1352   -2.4713   10.4012 C.ar      1 <0>        -0.1422
     28 C21         0.1138   -1.1414   10.0055 C.ar      1 <0>        -0.0701
     29 C22         0.0958   -0.8361    8.6573 C.ar      1 <0>        -0.0704
     30 C23         0.1005   -1.8504    7.7315 C.ar      1 <0>        -0.1479
     31 S2          0.0847   -1.9323    5.9567 S.3       1 <0>         0.0443
     32 F1          0.1610   -4.7736    9.9100 F         1 <0>        -0.1225
     33 H1         -0.0740    5.6020    0.0325 H         1 <0>         0.1326
     34 H2          2.0749    4.4000    0.0055 H         1 <0>         0.1347
     35 H3          2.1083    1.9379   -0.0077 H         1 <0>         0.1427
     36 H4         -2.1561    1.8799    0.0225 H         1 <0>         0.1429
     37 H5         -2.1894    4.3420    0.0451 H         1 <0>         0.1348
     38 H6          0.9141   -0.0669    2.2294 H         1 <0>         0.1411
     39 H7         -0.8656   -0.0912    2.2462 H         1 <0>         0.1416
     40 H8         -0.8420   -2.4179    1.3893 H         1 <0>         0.0974
     41 H9          0.9377   -2.3937    1.3724 H         1 <0>         0.0963
     42 H10         0.9554   -1.9936    3.8195 H         1 <0>         0.1171
     43 H11        -0.8243   -2.0179    3.8364 H         1 <0>         0.1184
     44 H12        -0.3727   -6.2578    5.6970 H         1 <0>         0.1115
     45 H13        -0.3877   -6.3904    3.9220 H         1 <0>         0.1149
     46 H14         1.7072   -6.6636    2.6688 H         1 <0>         0.1418
     47 H15         4.0646   -7.4433    2.7904 H         1 <0>         0.1389
     48 H16         5.1549   -7.6410    4.9899 H         1 <0>         0.1582
     49 H17         1.7260   -6.3287    6.9253 H         1 <0>         0.1591
     50 H18         0.1488   -2.7084   11.4548 H         1 <0>         0.1493
     51 H19         0.1107   -0.3528   10.7434 H         1 <0>         0.1506
     52 H20         0.0791    0.1943    8.3340 H         1 <0>         0.1416
@<TRIPOS>BOND
     1    1    6 ar
     2    1    2 ar
     3    1   33 1
     4    2    3 ar
     5    2   34 1
     6    3    4 ar
     7    3   35 1
     8    4    5 ar
     9    4    7 1
    10    5    6 ar
    11    5   36 1
    12    6   37 1
    13    7    8 2
    14    7    9 2
    15    7   10 1
    16   10   11 1
    17   10   38 1
    18   10   39 1
    19   11   12 1
    20   11   40 1
    21   11   41 1
    22   12   13 1
    23   12   42 1
    24   12   43 1
    25   13   14 2
    26   13   15 am
    27   15   16 1
    28   15   23 1
    29   16   17 1
    30   16   44 1
    31   16   45 1
    32   17   22 ar
    33   17   18 ar
    34   18   19 ar
    35   18   46 1
    36   19   20 ar
    37   19   47 1
    38   20   21 ar
    39   20   48 1
    40   21   22 ar
    41   22   49 1
    42   23   31 1
    43   23   24 2
    44   24   25 1
    45   25   30 ar
    46   25   26 ar
    47   26   27 ar
    48   26   32 1
    49   27   28 ar
    50   27   50 1
    51   28   29 ar
    52   28   51 1
    53   29   30 ar
    54   29   52 1
    55   30   31 1
@<TRIPOS>MOLECULE
ZINC21401904
   48    50     0     0     0
SMALL
USER_CHARGES
N-(1,3-benzothiazol-2-ylmethyl)-N-methyl-4-(methyl-(2-thienylsulfonyl)amino)butanamide
@<TRIPOS>ATOM
      1 C1         -6.5817   -0.1314   -4.3618 C.3       1 <0>         0.0800
      2 N1         -5.2585   -0.1585   -4.9901 N.pl3     1 <0>        -0.9937
      3 C2         -4.2403    0.8183   -4.5958 C.3       1 <0>         0.1100
      4 C3         -3.5003    0.3114   -3.3563 C.3       1 <0>        -0.1342
      5 C4         -2.4369    1.3315   -2.9446 C.3       1 <0>        -0.1383
      6 C5         -1.7081    0.8323   -1.7237 C.2       1 <0>         0.5151
      7 O1         -2.0095   -0.2344   -1.2313 O.2       1 <0>        -0.5142
      8 N2         -0.7213    1.5711   -1.1789 N.am      1 <0>        -0.6166
      9 C6         -0.3572    2.8595   -1.7735 C.3       1 <0>         0.0711
     10 C7         -0.0127    1.0858    0.0080 C.3       1 <0>         0.1988
     11 C8         -0.7181    1.5718    1.2479 C.2       1 <0>         0.1174
     12 N3         -1.6753    0.9899    1.9140 N.2       1 <0>        -0.4797
     13 C9         -2.2252    1.5358    3.0187 C.ar      1 <0>         0.0723
     14 C10        -3.2584    1.0330    3.8404 C.ar      1 <0>        -0.0554
     15 C11        -3.6858    1.7335    4.9255 C.ar      1 <0>        -0.1122
     16 C12        -3.1301    2.9591    5.2661 C.ar      1 <0>        -0.0903
     17 C13        -2.1168    3.4852    4.4872 C.ar      1 <0>        -0.0695
     18 C14        -1.6779    2.7852    3.3896 C.ar      1 <0>        -0.1461
     19 S1         -0.4459    3.0381    2.1371 S.3       1 <0>         0.0205
     20 S2         -4.9139   -1.2931   -6.1460 S.o2      1 <0>         2.7243
     21 O2         -6.1571   -1.6933   -6.7058 O.2       1 <0>        -0.9460
     22 O3         -3.8589   -0.7611   -6.9355 O.2       1 <0>        -0.9463
     23 C15        -4.2594   -2.7019   -5.3143 C.2       1 <0>        -0.7682
     24 C16        -4.9144   -3.7758   -4.8094 C.2       1 <0>        -0.0043
     25 C17        -4.1863   -4.7764   -4.1935 C.2       1 <0>        -0.1930
     26 C18        -2.8399   -4.6491   -4.1032 C.2       1 <0>        -0.1289
     27 S3         -2.5622   -3.0814   -4.9110 S.3       1 <0>         0.1679
     28 H1         -7.2044   -0.9341   -4.7836 H         1 <0>         0.0875
     29 H2         -7.0585    0.8413   -4.5529 H         1 <0>         0.0721
     30 H3         -6.4757   -0.2811   -3.2772 H         1 <0>         0.0648
     31 H4         -3.5246    0.9548   -5.4199 H         1 <0>         0.0985
     32 H5         -4.7235    1.7796   -4.3668 H         1 <0>         0.0909
     33 H6         -4.2160    0.1749   -2.5322 H         1 <0>         0.0791
     34 H7         -3.0171   -0.6499   -3.5853 H         1 <0>         0.0757
     35 H8         -1.7212    1.4679   -3.7687 H         1 <0>         0.1024
     36 H9         -2.9201    2.2928   -2.7157 H         1 <0>         0.0987
     37 H10         0.4619    3.3118   -1.1952 H         1 <0>         0.0814
     38 H11        -1.2295    3.5294   -1.7593 H         1 <0>         0.0658
     39 H12        -0.0306    2.7046   -2.8124 H         1 <0>         0.0731
     40 H13         0.0022   -0.0141    0.0019 H         1 <0>         0.1229
     41 H14         1.0193    1.4665    0.0002 H         1 <0>         0.1132
     42 H15        -3.7135    0.0824    3.6050 H         1 <0>         0.1334
     43 H16        -4.4773    1.3261    5.5369 H         1 <0>         0.1359
     44 H17        -3.4863    3.4967    6.1325 H         1 <0>         0.1406
     45 H18        -1.6745    4.4378    4.7389 H         1 <0>         0.1353
     46 H19        -5.9889   -3.8499   -4.8896 H         1 <0>         0.1464
     47 H20        -4.6833   -5.6445   -3.7863 H         1 <0>         0.1455
     48 H21        -2.1215   -5.3214   -3.6579 H         1 <0>         0.1964
@<TRIPOS>BOND
     1    1    2 1
     2    1   28 1
     3    1   29 1
     4    1   30 1
     5    2    3 1
     6    2   20 1
     7    3    4 1
     8    3   31 1
     9    3   32 1
    10    4    5 1
    11    4   33 1
    12    4   34 1
    13    5    6 1
    14    5   35 1
    15    5   36 1
    16    6    7 2
    17    6    8 am
    18    8    9 1
    19    8   10 1
    20    9   37 1
    21    9   38 1
    22    9   39 1
    23   10   11 1
    24   10   40 1
    25   10   41 1
    26   11   19 1
    27   11   12 2
    28   12   13 1
    29   13   18 ar
    30   13   14 ar
    31   14   15 ar
    32   14   42 1
    33   15   16 ar
    34   15   43 1
    35   16   17 ar
    36   16   44 1
    37   17   18 ar
    38   17   45 1
    39   18   19 1
    40   20   21 2
    41   20   22 2
    42   20   23 1
    43   23   27 1
    44   23   24 2
    45   24   25 1
    46   24   46 1
    47   25   26 2
    48   25   47 1
    49   26   27 1
    50   26   48 1
@<TRIPOS>MOLECULE
ZINC33658567
   56    58     0     0     0
SMALL
USER_CHARGES
N-[2-[2-furylmethyl-[(1-methylpyrrol-2-yl)methyl]amino]-2-oxo-ethyl]-N-[(1R)-1-methylpropyl]thiophene-2-carboxamide
@<TRIPOS>ATOM
      1 C1          1.1982    2.5396   -3.7321 C.3       1 <0>        -0.1557
      2 C2          0.1439    1.4347   -3.6404 C.3       1 <0>        -0.1338
      3 C3         -0.9775    1.8766   -2.6980 C.3       1 <0>         0.1210
      4 H1         -1.3702    2.8596   -2.9972 H         1 <0>         0.1014
      5 C4         -2.0910    0.8273   -2.7029 C.3       1 <0>        -0.1617
      6 N1         -0.4465    2.0188   -1.3401 N.am      1 <0>        -0.5841
      7 C5          0.2654    0.9034   -0.7114 C.3       1 <0>         0.0916
      8 C6         -0.6871    0.1276    0.1614 C.2       1 <0>         0.5068
      9 O1         -1.8631    0.4230    0.1875 O.2       1 <0>        -0.5180
     10 N2         -0.2322   -0.8944    0.9131 N.am      1 <0>        -0.6020
     11 C7         -1.1737   -1.7211    1.6723 C.3       1 <0>         0.1799
     12 C8         -1.5104   -2.9570    0.8785 C.2       1 <0>        -0.0084
     13 C9         -0.8835   -4.1477    0.9657 C.2       1 <0>        -0.1838
     14 C10        -1.5105   -5.0220    0.0559 C.2       1 <0>        -0.2026
     15 C11        -2.4965   -4.3322   -0.5526 C.2       1 <0>        -0.0095
     16 N3         -2.5052   -3.0658   -0.0475 N.pl3     1 <0>        -0.4355
     17 C12        -3.4282   -1.9973   -0.4382 C.3       1 <0>         0.0624
     18 C13         1.2038   -1.1787    0.9708 C.3       1 <0>         0.1887
     19 C14         1.8247   -0.4012    2.1026 C.2       1 <0>        -0.0477
     20 C15         1.9566   -0.8285    3.3712 C.2       1 <0>        -0.1858
     21 C16         2.5884    0.2120    4.0903 C.2       1 <0>        -0.2191
     22 C17         2.8048    1.2129    3.2181 C.2       1 <0>        -0.0232
     23 O2          2.3454    0.8336    2.0144 O.3       1 <0>        -0.1691
     24 C18        -0.6129    3.1758   -0.6692 C.2       1 <0>         0.6134
     25 O3         -0.0741    3.3362    0.4103 O.2       1 <0>        -0.5161
     26 C19        -1.4427    4.2410   -1.2396 C.2       1 <0>        -0.2357
     27 C20        -1.3566    5.6115   -1.0509 C.2       1 <0>        -0.0745
     28 C21        -2.2701    6.3925   -1.7140 C.2       1 <0>        -0.1751
     29 C22        -3.1981    5.7980   -2.5089 C.2       1 <0>        -0.2002
     30 S1         -2.8219    4.1119   -2.3639 S.3       1 <0>         0.1612
     31 H2          2.0044    2.2218   -4.4097 H         1 <0>         0.0600
     32 H3          1.6144    2.7332   -2.7324 H         1 <0>         0.0560
     33 H4          0.7338    3.4582   -4.1201 H         1 <0>         0.0560
     34 H5         -0.2723    1.2411   -4.6401 H         1 <0>         0.0825
     35 H6          0.6082    0.5161   -3.2524 H         1 <0>         0.0686
     36 H7         -2.8972    1.1450   -2.0253 H         1 <0>         0.0721
     37 H8         -1.6866   -0.1380   -2.3643 H         1 <0>         0.0561
     38 H9         -2.4897    0.7205   -3.7225 H         1 <0>         0.0698
     39 H10         0.6707    0.2413   -1.4907 H         1 <0>         0.1144
     40 H11         1.0900    1.2943   -0.0972 H         1 <0>         0.1188
     41 H12        -0.7162   -2.0132    2.6291 H         1 <0>         0.0996
     42 H13        -2.0924   -1.1476    1.8651 H         1 <0>         0.0952
     43 H14        -0.0533   -4.3871    1.6136 H         1 <0>         0.1339
     44 H15        -1.2495   -6.0549   -0.1213 H         1 <0>         0.1350
     45 H16        -3.1670   -4.7178   -1.3063 H         1 <0>         0.1598
     46 H17        -4.1218   -2.3739   -1.2044 H         1 <0>         0.0809
     47 H18        -2.8570   -1.1500   -0.8454 H         1 <0>         0.0922
     48 H19        -3.9988   -1.6657    0.4418 H         1 <0>         0.0751
     49 H20         1.3581   -2.2550    1.1373 H         1 <0>         0.1202
     50 H21         1.6745   -0.8834    0.0215 H         1 <0>         0.0958
     51 H22         1.6401   -1.7830    3.7650 H         1 <0>         0.1479
     52 H23         2.8473    0.2047    5.1388 H         1 <0>         0.1488
     53 H24         3.2733    2.1589    3.4459 H         1 <0>         0.2022
     54 H25        -0.6034    6.0459   -0.4103 H         1 <0>         0.1456
     55 H26        -2.2513    7.4668   -1.6055 H         1 <0>         0.1395
     56 H27        -3.9783    6.2635   -3.0929 H         1 <0>         0.1891
@<TRIPOS>BOND
     1    1    2 1
     2    1   31 1
     3    1   32 1
     4    1   33 1
     5    2    3 1
     6    2   34 1
     7    2   35 1
     8    3    4 1
     9    3    5 1
    10    3    6 1
    11    5   36 1
    12    5   37 1
    13    5   38 1
    14    6    7 1
    15    6   24 am
    16    7    8 1
    17    7   39 1
    18    7   40 1
    19    8    9 2
    20    8   10 am
    21   10   11 1
    22   10   18 1
    23   11   12 1
    24   11   41 1
    25   11   42 1
    26   12   16 1
    27   12   13 2
    28   13   14 1
    29   13   43 1
    30   14   15 2
    31   14   44 1
    32   15   16 1
    33   15   45 1
    34   16   17 1
    35   17   46 1
    36   17   47 1
    37   17   48 1
    38   18   19 1
    39   18   49 1
    40   18   50 1
    41   19   23 1
    42   19   20 2
    43   20   21 1
    44   20   51 1
    45   21   22 2
    46   21   52 1
    47   22   23 1
    48   22   53 1
    49   24   25 2
    50   24   26 1
    51   26   30 1
    52   26   27 2
    53   27   28 1
    54   27   54 1
    55   28   29 2
    56   28   55 1
    57   29   30 1
    58   29   56 1
@<TRIPOS>MOLECULE
ZINC35961615
   56    58     0     0     0
SMALL
USER_CHARGES

@<TRIPOS>ATOM
      1 C1         -0.0187    1.5258    0.0104 C.3       1 <0>        -0.1358
      2 C2          0.0021   -0.0041    0.0020 C.3       1 <0>        -0.1461
      3 C3          0.7074   -0.4901   -1.2379 C.2       1 <0>         0.5213
      4 O1          1.1500    0.3085   -2.0362 O.2       1 <0>        -0.5329
      5 N1          0.8465   -1.8122   -1.4596 N.am      1 <0>        -0.5933
      6 C4          1.5322   -2.2846   -2.6649 C.3       1 <0>         0.1219
      7 C5          3.0269   -2.4360   -2.3751 C.3       1 <0>         0.0443
      8 O2          3.2217   -3.4640   -1.4019 O.3       1 <0>        -0.3910
      9 C6          4.5907   -3.6871   -1.0581 C.3       1 <0>         0.0326
     10 C7          0.3119   -2.7768   -0.4953 C.3       1 <0>         0.1093
     11 C8         -1.1084   -3.1205   -0.8633 C.2       1 <0>         0.5314
     12 O3         -1.6236   -2.6099   -1.8357 O.2       1 <0>        -0.4966
     13 N2         -1.8064   -3.9953   -0.1122 N.am      1 <0>        -0.4639
     14 C9         -3.1925   -4.4220   -0.3613 C.3       1 <0>         0.1500
     15 H1         -3.8710   -3.5705   -0.3102 H         1 <0>         0.1033
     16 C10        -3.4775   -5.4123    0.7853 C.3       1 <0>        -0.1222
     17 C11        -2.1883   -5.4359    1.5749 C.2       1 <0>         0.1365
     18 N3         -1.3313   -4.6479    1.0235 N.2       1 <0>        -0.2228
     19 C12        -1.9470   -6.2416    2.7860 C.ar      1 <0>        -0.0714
     20 C13        -2.9514   -7.0727    3.2879 C.ar      1 <0>        -0.0605
     21 C14        -2.7190   -7.8235    4.4210 C.ar      1 <0>        -0.1320
     22 C15        -1.4942   -7.7560    5.0621 C.ar      1 <0>        -0.0707
     23 C16        -0.4937   -6.9362    4.5729 C.ar      1 <0>        -0.1584
     24 C17        -0.7093   -6.1820    3.4349 C.ar      1 <0>         0.1375
     25 F1          0.2705   -5.3858    2.9539 F         1 <0>        -0.1175
     26 C18        -3.3042   -5.1076   -1.6986 C.ar      1 <0>        -0.0922
     27 C19        -2.2982   -5.9528   -2.1282 C.ar      1 <0>        -0.1015
     28 C20        -2.4007   -6.5817   -3.3549 C.ar      1 <0>        -0.1170
     29 C21        -3.5093   -6.3658   -4.1519 C.ar      1 <0>        -0.1131
     30 C22        -4.5157   -5.5213   -3.7219 C.ar      1 <0>        -0.1163
     31 C23        -4.4153   -4.8958   -2.4933 C.ar      1 <0>        -0.0987
     32 H2          1.0039    1.9031    0.0027 H         1 <0>         0.0626
     33 H3         -0.5459    1.8868   -0.8726 H         1 <0>         0.0622
     34 H4         -0.5289    1.8773    0.9072 H         1 <0>         0.0618
     35 H5          0.5293   -0.3651    0.8851 H         1 <0>         0.0936
     36 H6         -1.0205   -0.3814    0.0098 H         1 <0>         0.0884
     37 H7          1.1204   -3.2489   -2.9628 H         1 <0>         0.0832
     38 H8          1.3894   -1.5641   -3.4702 H         1 <0>         0.1028
     39 H9          3.5500   -2.7015   -3.2938 H         1 <0>         0.0611
     40 H10         3.4200   -1.4941   -1.9924 H         1 <0>         0.0560
     41 H11         4.6538   -4.4816   -0.3146 H         1 <0>         0.0864
     42 H12         5.1463   -3.9786   -1.9494 H         1 <0>         0.0410
     43 H13         5.0162   -2.7711   -0.6481 H         1 <0>         0.0406
     44 H14         0.9203   -3.6812   -0.5107 H         1 <0>         0.1265
     45 H15         0.3332   -2.3416    0.5039 H         1 <0>         0.1139
     46 H16        -4.2990   -5.0533    1.4052 H         1 <0>         0.1108
     47 H17        -3.7010   -6.4026    0.3885 H         1 <0>         0.1099
     48 H18        -3.9081   -7.1268    2.7897 H         1 <0>         0.1391
     49 H19        -3.4954   -8.4659    4.8096 H         1 <0>         0.1374
     50 H20        -1.3190   -8.3465    5.9493 H         1 <0>         0.1378
     51 H21         0.4595   -6.8887    5.0784 H         1 <0>         0.1419
     52 H22        -1.4320   -6.1215   -1.5055 H         1 <0>         0.1138
     53 H23        -1.6144   -7.2415   -3.6908 H         1 <0>         0.1228
     54 H24        -3.5890   -6.8566   -5.1106 H         1 <0>         0.1238
     55 H25        -5.3817   -5.3524   -4.3447 H         1 <0>         0.1252
     56 H26        -5.2033   -4.2389   -2.1557 H         1 <0>         0.1232
@<TRIPOS>BOND
     1    1    2 1
     2    1   32 1
     3    1   33 1
     4    1   34 1
     5    2    3 1
     6    2   35 1
     7    2   36 1
     8    3    4 2
     9    3    5 am
    10    5    6 1
    11    5   10 1
    12    6    7 1
    13    6   37 1
    14    6   38 1
    15    7    8 1
    16    7   39 1
    17    7   40 1
    18    8    9 1
    19    9   41 1
    20    9   42 1
    21    9   43 1
    22   10   11 1
    23   10   44 1
    24   10   45 1
    25   11   12 2
    26   11   13 am
    27   13   18 1
    28   13   14 1
    29   14   15 1
    30   14   16 1
    31   14   26 1
    32   16   17 1
    33   16   46 1
    34   16   47 1
    35   17   18 2
    36   17   19 1
    37   19   24 ar
    38   19   20 ar
    39   20   21 ar
    40   20   48 1
    41   21   22 ar
    42   21   49 1
    43   22   23 ar
    44   22   50 1
    45   23   24 ar
    46   23   51 1
    47   24   25 1
    48   26   31 ar
    49   26   27 ar
    50   27   28 ar
    51   27   52 1
    52   28   29 ar
    53   28   53 1
    54   29   30 ar
    55   29   54 1
    56   30   31 ar
    57   30   55 1
    58   31   56 1
@<TRIPOS>MOLECULE
ZINC57960544
   52    55     0     0     0
SMALL
USER_CHARGES

@<TRIPOS>ATOM
      1 C1         -0.0167    1.3786    0.0096 C.ar      1 <0>        -0.1264
      2 C2          1.1696    2.0891    0.0021 C.ar      1 <0>        -0.0940
      3 C3          2.3774    1.4193   -0.0130 C.ar      1 <0>        -0.1179
      4 C4          2.3995    0.0309   -0.0207 C.ar      1 <0>         0.1573
      5 C5          1.2066   -0.6797   -0.0132 C.ar      1 <0>        -0.1398
      6 C6          0.0021   -0.0041    0.0020 C.ar      1 <0>        -0.0916
      7 N1          3.6231   -0.6516   -0.0366 N.pl3     1 <0>        -0.3144
      8 C7          3.7848   -2.0005   -0.0509 C.2       1 <0>         0.0790
      9 C8          5.1106   -2.2587   -0.0633 C.2       1 <0>        -0.2075
     10 C9          5.7920   -1.0256   -0.0565 C.2       1 <0>         0.1389
     11 N2          4.8941   -0.0628   -0.0465 N.2       1 <0>        -0.2669
     12 C10         7.2646   -0.8436   -0.0658 C.ar      1 <0>        -0.0125
     13 C11         8.0849   -1.7479    0.6059 C.ar      1 <0>        -0.0851
     14 C12         9.4538   -1.5747    0.5939 C.ar      1 <0>        -0.1077
     15 C13        10.0125   -0.5044   -0.0836 C.ar      1 <0>        -0.0239
     16 C14         9.2018    0.3966   -0.7525 C.ar      1 <0>        -0.1085
     17 C15         7.8321    0.2288   -0.7512 C.ar      1 <0>        -0.0749
     18 Cl1        11.7354   -0.2913   -0.0941 Cl        1 <0>        -0.0630
     19 C16         5.7481   -3.6241   -0.0806 C.3       1 <0>        -0.0361
     20 C17         6.0831   -4.0400    1.3286 C.2       1 <0>         0.4536
     21 O1          5.8301   -3.3032    2.2522 O.2       1 <0>        -0.4897
     22 O2          6.6625   -5.2289    1.5577 O.3       1 <0>        -0.3497
     23 C18         6.9520   -5.5581    2.9178 C.3       1 <0>         0.0464
     24 C19         7.6052   -6.9403    2.9800 C.3       1 <0>         0.1297
     25 N3          8.9055   -6.8966    2.3066 N.am      1 <0>        -0.6185
     26 C20         9.1076   -7.1649    0.8779 C.3       1 <0>         0.1018
     27 C21        10.5012   -6.5884    0.5434 C.3       1 <0>        -0.1330
     28 C22        11.2033   -6.6421    1.9201 C.3       1 <0>        -0.1564
     29 C23        10.0660   -6.6000    2.9167 C.2       1 <0>         0.5145
     30 O3         10.1844   -6.3392    4.0952 O.2       1 <0>        -0.5305
     31 H1         -0.9598    1.9047    0.0260 H         1 <0>         0.1307
     32 H2          1.1517    3.1690    0.0077 H         1 <0>         0.1339
     33 H3          3.3035    1.9747   -0.0193 H         1 <0>         0.1381
     34 H4          1.2206   -1.7596   -0.0195 H         1 <0>         0.1302
     35 H5         -0.9261   -0.5562    0.0083 H         1 <0>         0.1347
     36 H6          2.9937   -2.7358   -0.0517 H         1 <0>         0.1824
     37 H7          7.6499   -2.5827    1.1354 H         1 <0>         0.1280
     38 H8         10.0905   -2.2749    1.1142 H         1 <0>         0.1372
     39 H9          9.6423    1.2300   -1.2797 H         1 <0>         0.1402
     40 H10         7.2007    0.9297   -1.2770 H         1 <0>         0.1386
     41 H11         5.0547   -4.3433   -0.5166 H         1 <0>         0.1182
     42 H12         6.6603   -3.5917   -0.6764 H         1 <0>         0.1174
     43 H13         7.6325   -4.8156    3.3344 H         1 <0>         0.0733
     44 H14         6.0269   -5.5672    3.4943 H         1 <0>         0.0810
     45 H15         7.7450   -7.2295    4.0216 H         1 <0>         0.1064
     46 H16         6.9633   -7.6682    2.4838 H         1 <0>         0.0937
     47 H17         9.0882   -8.2383    0.6893 H         1 <0>         0.0725
     48 H18         8.3405   -6.6636    0.2878 H         1 <0>         0.0871
     49 H19        11.0185   -7.2152   -0.1830 H         1 <0>         0.0922
     50 H20        10.4230   -5.5619    0.1852 H         1 <0>         0.0828
     51 H21        11.7716   -7.5665    2.0227 H         1 <0>         0.1058
     52 H22        11.8535   -5.7770    2.0507 H         1 <0>         0.1023
@<TRIPOS>BOND
     1    1    6 ar
     2    1    2 ar
     3    1   31 1
     4    2    3 ar
     5    2   32 1
     6    3    4 ar
     7    3   33 1
     8    4    5 ar
     9    4    7 1
    10    5    6 ar
    11    5   34 1
    12    6   35 1
    13    7   11 1
    14    7    8 1
    15    8    9 2
    16    8   36 1
    17    9   10 1
    18    9   19 1
    19   10   11 2
    20   10   12 1
    21   12   17 ar
    22   12   13 ar
    23   13   14 ar
    24   13   37 1
    25   14   15 ar
    26   14   38 1
    27   15   16 ar
    28   15   18 1
    29   16   17 ar
    30   16   39 1
    31   17   40 1
    32   19   20 1
    33   19   41 1
    34   19   42 1
    35   20   21 2
    36   20   22 1
    37   22   23 1
    38   23   24 1
    39   23   43 1
    40   23   44 1
    41   24   25 1
    42   24   45 1
    43   24   46 1
    44   25   29 am
    45   25   26 1
    46   26   27 1
    47   26   47 1
    48   26   48 1
    49   27   28 1
    50   27   49 1
    51   27   50 1
    52   28   29 1
    53   28   51 1
    54   28   52 1
    55   29   30 2
@<TRIPOS>MOLECULE
ZINC16532785
   63    65     0     0     0
SMALL
USER_CHARGES
2-[butyl-(2-methoxyacetyl)amino]-N-[(4-fluorophenyl)methyl]-N-[(4-oxochromen-3-yl)methyl]acetamide
@<TRIPOS>ATOM
      1 C1          2.4113   -5.9132   -3.2445 C.3       1 <0>        -0.1510
      2 C2          1.5342   -5.2283   -4.2945 C.3       1 <0>        -0.1231
      3 C3          0.0712   -5.2805   -3.8496 C.3       1 <0>        -0.1366
      4 C4         -0.8059   -4.5956   -4.8996 C.3       1 <0>         0.1056
      5 N1         -2.2067   -4.6455   -4.4735 N.am      1 <0>        -0.5975
      6 C5         -2.7634   -3.5631   -3.6583 C.3       1 <0>         0.0920
      7 C6         -2.5706   -3.8837   -2.1984 C.2       1 <0>         0.5032
      8 O1         -2.1243   -4.9619   -1.8681 O.2       1 <0>        -0.5214
      9 N2         -2.8942   -2.9721   -1.2599 N.am      1 <0>        -0.5998
     10 C7         -3.5234   -1.7086   -1.6521 C.3       1 <0>         0.1408
     11 C8         -5.0210   -1.8392   -1.5469 C.ar      1 <0>        -0.1223
     12 C9         -5.7439   -2.3685   -2.5997 C.ar      1 <0>        -0.0764
     13 C10        -7.1168   -2.4932   -2.5024 C.ar      1 <0>        -0.1494
     14 C11        -7.7694   -2.0781   -1.3540 C.ar      1 <0>         0.1046
     15 C12        -7.0450   -1.5433   -0.3022 C.ar      1 <0>        -0.1537
     16 C13        -5.6716   -1.4244   -0.3997 C.ar      1 <0>        -0.0715
     17 F1         -9.1120   -2.1952   -1.2596 F         1 <0>        -0.1382
     18 C14        -2.6168   -3.2448    0.1525 C.3       1 <0>         0.1859
     19 C15        -1.1888   -2.8774    0.4640 C.2       1 <0>        -0.3213
     20 C16        -0.2447   -3.8330    0.5377 C.2       1 <0>         0.1642
     21 O2          1.0370   -3.5668    0.8106 O.3       1 <0>        -0.2191
     22 C17         1.4834   -2.3139    1.0340 C.ar      1 <0>         0.1384
     23 C18         2.8224   -2.0710    1.3158 C.ar      1 <0>        -0.1396
     24 C19         3.2543   -0.7815    1.5410 C.ar      1 <0>        -0.0564
     25 C20         2.3652    0.2826    1.4907 C.ar      1 <0>        -0.1477
     26 C21         1.0339    0.0634    1.2126 C.ar      1 <0>        -0.0310
     27 C22         0.5849   -1.2360    0.9826 C.ar      1 <0>        -0.2225
     28 C23        -0.8315   -1.5203    0.6815 C.2       1 <0>         0.4329
     29 O3         -1.6602   -0.6279    0.6232 O.2       1 <0>        -0.4674
     30 C24        -2.9832   -5.6873   -4.8316 C.2       1 <0>         0.5242
     31 O4         -4.1429   -5.7286   -4.4789 O.2       1 <0>        -0.5094
     32 C25        -2.4106   -6.8007   -5.6703 C.3       1 <0>         0.0463
     33 O5         -3.4215   -7.7804   -5.9158 O.3       1 <0>        -0.3667
     34 C26        -2.9800   -8.8855   -6.7070 C.3       1 <0>         0.0296
     35 H1          2.1018   -6.9525   -3.1345 H         1 <0>         0.0543
     36 H2          3.4535   -5.8760   -3.5615 H         1 <0>         0.0545
     37 H3          2.3034   -5.3989   -2.2896 H         1 <0>         0.0533
     38 H4          1.6421   -5.7426   -5.2495 H         1 <0>         0.0624
     39 H5          1.8437   -4.1890   -4.4046 H         1 <0>         0.0613
     40 H6         -0.0366   -4.7662   -2.8946 H         1 <0>         0.0732
     41 H7         -0.2382   -6.3198   -3.7396 H         1 <0>         0.0672
     42 H8         -0.6980   -5.1099   -5.8546 H         1 <0>         0.0829
     43 H9         -0.4964   -3.5563   -5.0096 H         1 <0>         0.0825
     44 H10        -3.8276   -3.4592   -3.8700 H         1 <0>         0.1169
     45 H11        -2.2528   -2.6298   -3.8958 H         1 <0>         0.1080
     46 H12        -3.1809   -0.9118   -0.9919 H         1 <0>         0.1100
     47 H13        -3.2508   -1.4708   -2.6804 H         1 <0>         0.0872
     48 H14        -5.2350   -2.6885   -3.4970 H         1 <0>         0.1297
     49 H15        -7.6808   -2.9106   -3.3234 H         1 <0>         0.1375
     50 H16        -7.5530   -1.2194    0.5941 H         1 <0>         0.1370
     51 H17        -5.1063   -1.0075    0.4207 H         1 <0>         0.1357
     52 H18        -2.7718   -4.3045    0.3552 H         1 <0>         0.0924
     53 H19        -3.2882   -2.6537    0.7754 H         1 <0>         0.0959
     54 H20        -0.5345   -4.8595    0.3687 H         1 <0>         0.2029
     55 H21         3.5237   -2.8913    1.3579 H         1 <0>         0.1439
     56 H22         4.2958   -0.5975    1.7596 H         1 <0>         0.1415
     57 H23         2.7187    1.2873    1.6694 H         1 <0>         0.1370
     58 H24         0.3438    0.8930    1.1686 H         1 <0>         0.1423
     59 H25        -2.0582   -6.3965   -6.6193 H         1 <0>         0.0799
     60 H26        -1.5776   -7.2630   -5.1406 H         1 <0>         0.0825
     61 H27        -2.6395   -8.5245   -7.6774 H         1 <0>         0.0445
     62 H28        -2.1589   -9.3911   -6.1988 H         1 <0>         0.0447
     63 H29        -3.8049   -9.5838   -6.8481 H         1 <0>         0.0931
@<TRIPOS>BOND
     1    1    2 1
     2    1   35 1
     3    1   36 1
     4    1   37 1
     5    2    3 1
     6    2   38 1
     7    2   39 1
     8    3    4 1
     9    3   40 1
    10    3   41 1
    11    4    5 1
    12    4   42 1
    13    4   43 1
    14    5    6 1
    15    5   30 am
    16    6    7 1
    17    6   44 1
    18    6   45 1
    19    7    8 2
    20    7    9 am
    21    9   10 1
    22    9   18 1
    23   10   11 1
    24   10   46 1
    25   10   47 1
    26   11   16 ar
    27   11   12 ar
    28   12   13 ar
    29   12   48 1
    30   13   14 ar
    31   13   49 1
    32   14   15 ar
    33   14   17 1
    34   15   16 ar
    35   15   50 1
    36   16   51 1
    37   18   19 1
    38   18   52 1
    39   18   53 1
    40   19   28 1
    41   19   20 2
    42   20   21 1
    43   20   54 1
    44   21   22 1
    45   22   27 ar
    46   22   23 ar
    47   23   24 ar
    48   23   55 1
    49   24   25 ar
    50   24   56 1
    51   25   26 ar
    52   25   57 1
    53   26   27 ar
    54   26   58 1
    55   27   28 1
    56   28   29 2
    57   30   31 2
    58   30   32 1
    59   32   33 1
    60   32   59 1
    61   32   60 1
    62   33   34 1
    63   34   61 1
    64   34   62 1
    65   34   63 1
@<TRIPOS>MOLECULE
ZINC25674472
   67    69     0     0     0
SMALL
USER_CHARGES
2-(5-acetyl-2-methoxy-phenyl)-N-[(4-allyloxy-3-methoxy-phenyl)methyl]-N-[[(2R)-tetrahydrofuran-2-yl]methyl]acetamide
@<TRIPOS>ATOM
      1 C1          2.7611   -0.8134    6.1349 C.3       1 <0>        -0.2050
      2 C2          1.5195    0.0399    6.0985 C.2       1 <0>         0.3983
      3 O1          0.9994    0.3985    7.1339 O.2       1 <0>        -0.4652
      4 C3          0.9394    0.4375    4.8093 C.ar      1 <0>        -0.2144
      5 C4          1.5379    0.0250    3.6123 C.ar      1 <0>        -0.0319
      6 C5          0.9963    0.3956    2.4145 C.ar      1 <0>        -0.2235
      7 C6         -0.1497    1.1828    2.3775 C.ar      1 <0>         0.1817
      8 C7         -0.7491    1.6028    3.5601 C.ar      1 <0>        -0.1102
      9 C8         -0.2145    1.2301    4.7726 C.ar      1 <0>        -0.0102
     10 C9         -1.9869    2.4612    3.5141 C.3       1 <0>        -0.1035
     11 C10        -3.2033    1.5818    3.3793 C.2       1 <0>         0.5361
     12 O2         -3.0775    0.3767    3.3258 O.2       1 <0>        -0.5331
     13 N1         -4.4310    2.1345    3.3181 N.am      1 <0>        -0.6063
     14 C11        -5.6135    1.2796    3.1871 C.3       1 <0>         0.1580
     15 C12        -6.1226    0.9129    4.5573 C.ar      1 <0>        -0.1049
     16 C13        -7.0575    1.7161    5.1835 C.ar      1 <0>        -0.1048
     17 C14        -7.5283    1.3835    6.4400 C.ar      1 <0>        -0.1771
     18 C15        -7.0628    0.2432    7.0748 C.ar      1 <0>         0.1053
     19 C16        -6.1214   -0.5650    6.4447 C.ar      1 <0>         0.0988
     20 C17        -5.6579   -0.2290    5.1828 C.ar      1 <0>        -0.1468
     21 O3         -5.6615   -1.6852    7.0636 O.3       1 <0>        -0.3061
     22 C18        -4.6961   -2.4668    6.3571 C.3       1 <0>         0.0237
     23 O4         -7.5252   -0.0857    8.3107 O.3       1 <0>        -0.3000
     24 C19        -8.4908    0.7900    8.8963 C.3       1 <0>         0.0851
     25 C20        -8.8833    0.2686   10.2546 C.2       1 <0>        -0.1599
     26 C21        -8.9643    1.0889   11.2728 C.2       1 <0>        -0.1736
     27 C22        -4.5830    3.5902    3.3827 C.3       1 <0>         0.1068
     28 C23        -4.5307    4.1717    1.9685 C.3       1 <0>         0.0536
     29 H1         -5.2946    3.6887    1.3415 H         1 <0>         0.0729
     30 C24        -4.6898    5.7034    2.0255 C.3       1 <0>        -0.1512
     31 C25        -3.4013    6.2438    1.3589 C.3       1 <0>        -0.1566
     32 C26        -2.9280    5.0227    0.5299 C.3       1 <0>         0.0489
     33 O5         -3.2512    3.8968    1.3740 O.3       1 <0>        -0.3594
     34 O6         -0.6816    1.5467    1.1837 O.3       1 <0>        -0.2976
     35 C27        -0.0127    1.0858    0.0080 C.3       1 <0>         0.0216
     36 H2          3.0833   -1.0360    5.1070 H         1 <0>         0.0828
     37 H3          2.5444   -1.7537    6.6630 H         1 <0>         0.0951
     38 H4          3.5618   -0.2733    6.6613 H         1 <0>         0.0951
     39 H5          2.4281   -0.5861    3.6364 H         1 <0>         0.1361
     40 H6          1.4594    0.0759    1.4927 H         1 <0>         0.1345
     41 H7         -0.6808    1.5515    5.6922 H         1 <0>         0.1357
     42 H8         -2.0602    3.0489    4.4411 H         1 <0>         0.0941
     43 H9         -1.9292    3.1420    2.6520 H         1 <0>         0.1361
     44 H10        -6.3978    1.8204    2.6372 H         1 <0>         0.0854
     45 H11        -5.3455    0.3646    2.6385 H         1 <0>         0.0931
     46 H12        -7.4211    2.6052    4.6898 H         1 <0>         0.1245
     47 H13        -8.2586    2.0127    6.9270 H         1 <0>         0.1341
     48 H14        -4.9306   -0.8569    4.6897 H         1 <0>         0.1421
     49 H15        -4.4118   -3.3371    6.9668 H         1 <0>         0.1018
     50 H16        -3.8053   -1.8540    6.1548 H         1 <0>         0.0579
     51 H17        -5.1282   -2.8109    5.4058 H         1 <0>         0.0554
     52 H18        -8.0579    1.7958    9.0007 H         1 <0>         0.0668
     53 H19        -9.3804    0.8388    8.2512 H         1 <0>         0.0719
     54 H20        -9.1018   -0.8008   10.3911 H         1 <0>         0.1229
     55 H21        -9.2508    0.7083   12.2643 H         1 <0>         0.1113
     56 H22        -8.7458    2.1583   11.1363 H         1 <0>         0.1015
     57 H23        -5.5498    3.8377    3.8454 H         1 <0>         0.0938
     58 H24        -3.7680    4.0176    3.9853 H         1 <0>         0.0879
     59 H25        -5.5948    5.9988    1.4744 H         1 <0>         0.0778
     60 H26        -4.7779    6.0241    3.0740 H         1 <0>         0.0804
     61 H27        -3.6487    7.1165    0.7366 H         1 <0>         0.0804
     62 H28        -2.6825    6.5403    2.1370 H         1 <0>         0.0779
     63 H29        -3.4693    4.9974   -0.4273 H         1 <0>         0.0608
     64 H30        -1.8480    5.1060    0.3383 H         1 <0>         0.0941
     65 H31        -0.5447    1.4502   -0.8832 H         1 <0>         0.1030
     66 H32         0.0022   -0.0141    0.0020 H         1 <0>         0.0583
     67 H33         1.0193    1.4666    0.0002 H         1 <0>         0.0580
@<TRIPOS>BOND
     1    1    2 1
     2    1   36 1
     3    1   37 1
     4    1   38 1
     5    2    3 2
     6    2    4 1
     7    4    9 ar
     8    4    5 ar
     9    5    6 ar
    10    5   39 1
    11    6    7 ar
    12    6   40 1
    13    7    8 ar
    14    7   34 1
    15    8    9 ar
    16    8   10 1
    17    9   41 1
    18   10   11 1
    19   10   42 1
    20   10   43 1
    21   11   12 2
    22   11   13 am
    23   13   14 1
    24   13   27 1
    25   14   15 1
    26   14   44 1
    27   14   45 1
    28   15   20 ar
    29   15   16 ar
    30   16   17 ar
    31   16   46 1
    32   17   18 ar
    33   17   47 1
    34   18   19 ar
    35   18   23 1
    36   19   20 ar
    37   19   21 1
    38   20   48 1
    39   21   22 1
    40   22   49 1
    41   22   50 1
    42   22   51 1
    43   23   24 1
    44   24   25 1
    45   24   52 1
    46   24   53 1
    47   25   26 2
    48   25   54 1
    49   26   55 1
    50   26   56 1
    51   27   28 1
    52   27   57 1
    53   27   58 1
    54   28   29 1
    55   28   33 1
    56   28   30 1
    57   30   31 1
    58   30   59 1
    59   30   60 1
    60   31   32 1
    61   31   61 1
    62   31   62 1
    63   32   33 1
    64   32   63 1
    65   32   64 1
    66   34   35 1
    67   35   65 1
    68   35   66 1
    69   35   67 1
@<TRIPOS>MOLECULE
ZINC35044892
   62    65     0     0     0
SMALL
USER_CHARGES

@<TRIPOS>ATOM
      1 C1         -0.0163    1.3513    0.0095 C.2       1 <0>        -0.1564
      2 C2          1.1833    2.0380    0.0017 C.2       1 <0>        -0.1314
      3 C3          2.3426    1.3358   -0.0131 C.2       1 <0>        -0.1787
      4 S1          1.7535   -0.3495   -0.0166 S.3       1 <0>         0.0427
      5 C4          0.0021   -0.0041    0.0020 C.2       1 <0>        -0.1643
      6 C5          3.7608    1.8454   -0.0244 C.3       1 <0>         0.1924
      7 N1          4.2338    2.0036    1.3531 N.am      1 <0>        -0.6034
      8 C6          4.8992    0.8887    2.0317 C.3       1 <0>         0.1590
      9 C7          6.3834    0.9618    1.7808 C.ar      1 <0>        -0.0981
     10 C8          6.9295    0.3243    0.6823 C.ar      1 <0>        -0.0958
     11 C9          8.2903    0.3889    0.4476 C.ar      1 <0>        -0.1020
     12 C10         9.1106    1.0930    1.3140 C.ar      1 <0>         0.0360
     13 C11         8.5605    1.7352    2.4206 C.ar      1 <0>         0.0299
     14 C12         7.1951    1.6710    2.6463 C.ar      1 <0>        -0.0755
     15 O1          9.5639    2.3522    3.1104 O.3       1 <0>        -0.3082
     16 C13        10.7822    1.7422    2.6445 C.3       1 <0>         0.2128
     17 O2         10.4586    1.3077    1.3105 O.3       1 <0>        -0.3090
     18 C14         4.0567    3.1747    1.9962 C.2       1 <0>         0.5065
     19 O3          4.4482    3.3056    3.1365 O.2       1 <0>        -0.5210
     20 C15         3.3721    4.3216    1.2982 C.3       1 <0>         0.0966
     21 N2          3.3030    5.4722    2.2023 N.am      1 <0>        -0.5889
     22 C16         4.3899    6.4542    2.2226 C.3       1 <0>         0.1133
     23 C17         4.0974    7.5599    1.2062 C.3       1 <0>         0.0609
     24 H1          3.1545    8.0521    1.4446 H         1 <0>         0.0745
     25 C18         5.2530    8.5918    1.1866 C.3       1 <0>        -0.1510
     26 C19         5.1014    9.1770   -0.2440 C.3       1 <0>        -0.1555
     27 C20         4.6221    7.9509   -1.0504 C.3       1 <0>         0.0495
     28 O4          4.0542    7.0167   -0.1229 O.3       1 <0>        -0.3758
     29 C21         2.2394    5.6274    3.0154 C.2       1 <0>         0.5220
     30 O5          1.3395    4.8144    2.9986 O.2       1 <0>        -0.5280
     31 C22         2.1682    6.8111    3.9454 C.3       1 <0>        -0.1398
     32 C23         0.8690    6.7493    4.7511 C.3       1 <0>        -0.1159
     33 C24         0.7968    7.9510    5.6953 C.3       1 <0>        -0.0339
     34 Cl1        -0.7342    7.8782    6.6448 Cl        1 <0>        -0.1807
     35 H2         -0.9542    1.8866    0.0258 H         1 <0>         0.1350
     36 H3          1.1967    3.1179    0.0070 H         1 <0>         0.1322
     37 H4         -0.8275   -0.6955    0.0065 H         1 <0>         0.1861
     38 H5          4.3986    1.1333   -0.5480 H         1 <0>         0.1001
     39 H6          3.7967    2.8084   -0.5337 H         1 <0>         0.1043
     40 H7          4.7084    0.9495    3.1031 H         1 <0>         0.0974
     41 H8          4.5117   -0.0545    1.6465 H         1 <0>         0.0918
     42 H9          6.2916   -0.2257    0.0062 H         1 <0>         0.1374
     43 H10         8.7141   -0.1101   -0.4113 H         1 <0>         0.1371
     44 H11         6.7652    2.1718    3.5012 H         1 <0>         0.1403
     45 H12        11.5921    2.4714    2.6239 H         1 <0>         0.1326
     46 H13        11.0480    0.8907    3.2708 H         1 <0>         0.0856
     47 H14         3.9370    4.5935    0.4065 H         1 <0>         0.1153
     48 H15         2.3635    4.0230    1.0123 H         1 <0>         0.1150
     49 H16         4.4687    6.8884    3.2192 H         1 <0>         0.0974
     50 H17         5.3282    5.9630    1.9650 H         1 <0>         0.0882
     51 H18         5.1049    9.3619    1.9438 H         1 <0>         0.0873
     52 H19         6.2190    8.1023    1.3105 H         1 <0>         0.0831
     53 H20         4.3533    9.9695   -0.2616 H         1 <0>         0.0779
     54 H21         6.0592    9.5377   -0.6190 H         1 <0>         0.0843
     55 H22         3.8668    8.2567   -1.7743 H         1 <0>         0.0693
     56 H23         5.4669    7.4943   -1.5662 H         1 <0>         0.0705
     57 H24         3.0193    6.7899    4.6262 H         1 <0>         0.0992
     58 H25         2.1914    7.7324    3.3634 H         1 <0>         0.0956
     59 H26         0.0180    6.7704    4.0704 H         1 <0>         0.0835
     60 H27         0.8459    5.8280    5.3332 H         1 <0>         0.0842
     61 H28         1.6478    7.9298    6.3761 H         1 <0>         0.0935
     62 H29         0.8199    8.8723    5.1133 H         1 <0>         0.0929
@<TRIPOS>BOND
     1    1    5 2
     2    1    2 1
     3    1   35 1
     4    2    3 2
     5    2   36 1
     6    3    4 1
     7    3    6 1
     8    4    5 1
     9    5   37 1
    10    6    7 1
    11    6   38 1
    12    6   39 1
    13    7    8 1
    14    7   18 am
    15    8    9 1
    16    8   40 1
    17    8   41 1
    18    9   14 ar
    19    9   10 ar
    20   10   11 ar
    21   10   42 1
    22   11   12 ar
    23   11   43 1
    24   12   17 1
    25   12   13 ar
    26   13   14 ar
    27   13   15 1
    28   14   44 1
    29   15   16 1
    30   16   17 1
    31   16   45 1
    32   16   46 1
    33   18   19 2
    34   18   20 1
    35   20   21 1
    36   20   47 1
    37   20   48 1
    38   21   22 1
    39   21   29 am
    40   22   23 1
    41   22   49 1
    42   22   50 1
    43   23   24 1
    44   23   28 1
    45   23   25 1
    46   25   26 1
    47   25   51 1
    48   25   52 1
    49   26   27 1
    50   26   53 1
    51   26   54 1
    52   27   28 1
    53   27   55 1
    54   27   56 1
    55   29   30 2
    56   29   31 1
    57   31   32 1
    58   31   57 1
    59   31   58 1
    60   32   33 1
    61   32   59 1
    62   32   60 1
    63   33   34 1
    64   33   61 1
    65   33   62 1
@<TRIPOS>MOLECULE
ZINC36030366
   59    61     0     0     0
SMALL
USER_CHARGES

@<TRIPOS>ATOM
      1 C1         -0.4836    1.0362    0.6239 C.3       1 <0>         0.0327
      2 O1         -0.3723   -0.3803    0.4711 O.3       1 <0>        -0.3840
      3 C2          0.3512   -0.7842   -0.6931 C.3       1 <0>         0.0443
      4 C3          0.4073   -2.3119   -0.7542 C.3       1 <0>         0.0854
      5 N1          1.1490   -2.7260   -1.9478 N.pl3     1 <0>        -0.3941
      6 C4          0.6132   -3.0534   -3.1641 C.2       1 <0>         0.0041
      7 C5          1.6435   -3.3712   -3.9709 C.2       1 <0>         0.0079
      8 N2          2.7775   -3.2415   -3.2665 N.2       1 <0>        -0.3885
      9 C6          2.4894   -2.8505   -2.0552 C.2       1 <0>        -0.3377
     10 S1          3.6557   -2.5404   -0.7714 S.o2      1 <0>         2.5163
     11 O2          4.8570   -2.1968   -1.4482 O.2       1 <0>        -0.8958
     12 O3          3.0132   -1.6052    0.0840 O.2       1 <0>        -0.9185
     13 C7          3.8497   -4.1322    0.0766 C.3       1 <0>        -0.5508
     14 C8          4.8361   -3.9828    1.2060 C.ar      1 <0>        -0.1017
     15 C9          6.1832   -4.1955    0.9798 C.ar      1 <0>        -0.0996
     16 C10         7.0881   -4.0585    2.0158 C.ar      1 <0>        -0.1166
     17 C11         6.6460   -3.7082    3.2779 C.ar      1 <0>        -0.1041
     18 C12         5.2991   -3.4945    3.5038 C.ar      1 <0>        -0.1179
     19 C13         4.3947   -3.6274    2.4668 C.ar      1 <0>        -0.1004
     20 C14        -0.8488   -3.0577   -3.5299 C.3       1 <0>         0.1879
     21 N3         -1.4713   -4.2898   -3.0392 N.am      1 <0>        -0.6059
     22 C15        -2.1554   -4.2992   -1.7438 C.3       1 <0>         0.1141
     23 C16        -1.5712   -5.3833   -0.8751 C.2       1 <0>        -0.2092
     24 C17        -1.1962   -5.1100    0.3500 C.2       1 <0>        -0.1630
     25 C18        -1.4146   -5.4146   -3.7795 C.2       1 <0>         0.5669
     26 O4         -0.7662   -5.4335   -4.8077 O.2       1 <0>        -0.5058
     27 C19        -2.1402   -6.6242   -3.3417 C.ar      1 <0>        -0.1922
     28 C20        -2.9779   -6.5745   -2.2253 C.ar      1 <0>        -0.0982
     29 C21        -3.6526   -7.7069   -1.8221 C.ar      1 <0>        -0.1549
     30 C22        -3.5022   -8.8933   -2.5200 C.ar      1 <0>        -0.0547
     31 C23        -2.6753   -8.9528   -3.6257 C.ar      1 <0>        -0.1750
     32 C24        -1.9964   -7.8234   -4.0462 C.ar      1 <0>         0.1673
     33 F1         -1.1923   -7.8803   -5.1304 F         1 <0>        -0.1138
     34 H1          0.5123    1.4732    0.6964 H         1 <0>         0.0483
     35 H2         -1.0023    1.4550   -0.2385 H         1 <0>         0.0428
     36 H3         -1.0458    1.2608    1.5303 H         1 <0>         0.0923
     37 H4         -0.1501   -0.4031   -1.5828 H         1 <0>         0.0530
     38 H5          1.3644   -0.3849   -0.6480 H         1 <0>         0.0829
     39 H6          0.9086   -2.6930    0.1355 H         1 <0>         0.1103
     40 H7         -0.6060   -2.7112   -0.7994 H         1 <0>         0.1084
     41 H8          1.5696   -3.6770   -5.0041 H         1 <0>         0.1877
     42 H9          2.8866   -4.4513    0.4752 H         1 <0>         0.1429
     43 H10         4.2157   -4.8777   -0.6293 H         1 <0>         0.1515
     44 H11         6.5285   -4.4692   -0.0062 H         1 <0>         0.1339
     45 H12         8.1404   -4.2254    1.8393 H         1 <0>         0.1321
     46 H13         7.3529   -3.6018    4.0874 H         1 <0>         0.1296
     47 H14         4.9537   -3.2211    4.4899 H         1 <0>         0.1312
     48 H15         3.3428   -3.4568    2.6425 H         1 <0>         0.1312
     49 H16        -1.3395   -2.1969   -3.0758 H         1 <0>         0.0968
     50 H17        -0.9523   -3.0051   -4.6137 H         1 <0>         0.1201
     51 H18        -2.0241   -3.3330   -1.2566 H         1 <0>         0.0951
     52 H19        -3.2181   -4.4883   -1.8954 H         1 <0>         0.1060
     53 H20        -1.4618   -6.3854   -1.2625 H         1 <0>         0.1370
     54 H21        -1.3792   -4.1298    0.7649 H         1 <0>         0.1045
     55 H22        -0.7039   -5.8650    0.9451 H         1 <0>         0.1088
     56 H23        -3.0965   -5.6506   -1.6786 H         1 <0>         0.1918
     57 H24        -4.3005   -7.6687   -0.9588 H         1 <0>         0.1365
     58 H25        -4.0336   -9.7768   -2.1984 H         1 <0>         0.1378
     59 H26        -2.5621   -9.8817   -4.1648 H         1 <0>         0.1430
@<TRIPOS>BOND
     1    1    2 1
     2    1   34 1
     3    1   35 1
     4    1   36 1
     5    2    3 1
     6    3    4 1
     7    3   37 1
     8    3   38 1
     9    4    5 1
    10    4   39 1
    11    4   40 1
    12    5    9 1
    13    5    6 1
    14    6    7 2
    15    6   20 1
    16    7    8 1
    17    7   41 1
    18    8    9 2
    19    9   10 1
    20   10   11 2
    21   10   12 2
    22   10   13 1
    23   13   14 1
    24   13   42 1
    25   13   43 1
    26   14   19 ar
    27   14   15 ar
    28   15   16 ar
    29   15   44 1
    30   16   17 ar
    31   16   45 1
    32   17   18 ar
    33   17   46 1
    34   18   19 ar
    35   18   47 1
    36   19   48 1
    37   20   21 1
    38   20   49 1
    39   20   50 1
    40   21   22 1
    41   21   25 am
    42   22   23 1
    43   22   51 1
    44   22   52 1
    45   23   24 2
    46   23   53 1
    47   24   54 1
    48   24   55 1
    49   25   26 2
    50   25   27 1
    51   27   32 ar
    52   27   28 ar
    53   28   29 ar
    54   28   56 1
    55   29   30 ar
    56   29   57 1
    57   30   31 ar
    58   30   58 1
    59   31   32 ar
    60   31   59 1
    61   32   33 1
@<TRIPOS>MOLECULE
ZINC13505542
   67    70     0     0     0
SMALL
USER_CHARGES

@<TRIPOS>ATOM
      1 C1         -0.0187    1.5258    0.0104 C.3       1 <0>        -0.1546
      2 C2          0.0021   -0.0041    0.0020 C.3       1 <0>        -0.1128
      3 C3          0.7421   -0.5109    1.2415 C.3       1 <0>        -0.1101
      4 C4          0.7628   -2.0407    1.2331 C.3       1 <0>         0.1677
      5 H1          1.1931   -2.3931    0.2957 H         1 <0>         0.1035
      6 C5          1.5956   -2.5382    2.3864 C.2       1 <0>         0.1523
      7 N1          1.2488   -2.5594    3.6503 N.2       1 <0>        -0.2912
      8 N2          2.2288   -3.0557    4.3235 N.2       1 <0>        -0.0739
      9 N3          3.1917   -3.3517    3.5220 N.2       1 <0>        -0.0928
     10 N4          2.8376   -3.0524    2.3180 N.pl3     1 <0>        -0.3035
     11 C6          3.6383   -3.2345    1.1047 C.3       1 <0>         0.1158
     12 C7          4.4729   -1.9776    0.8510 C.3       1 <0>        -0.0885
     13 C8          5.2966   -2.1650   -0.3970 C.ar      1 <0>        -0.0888
     14 C9          6.5621   -2.7150   -0.3121 C.ar      1 <0>        -0.1044
     15 C10         7.3216   -2.8890   -1.4540 C.ar      1 <0>        -0.1700
     16 C11         6.8146   -2.5122   -2.6873 C.ar      1 <0>         0.1052
     17 C12         5.5406   -1.9590   -2.7729 C.ar      1 <0>         0.1035
     18 C13         4.7827   -1.7918   -1.6250 C.ar      1 <0>        -0.1645
     19 O1          5.0387   -1.5877   -3.9810 O.3       1 <0>        -0.3044
     20 C14         3.7243   -1.0270   -3.9928 C.3       1 <0>         0.0250
     21 O2          7.5606   -2.6823   -3.8116 O.3       1 <0>        -0.3052
     22 C15         8.8593   -3.2556   -3.6479 C.3       1 <0>         0.0248
     23 N5         -0.6089   -2.5498    1.3642 N.3       1 <0>        -0.5012
     24 C16        -1.2161   -2.1076    2.6266 C.3       1 <0>         0.0150
     25 C17        -2.6965   -2.5033    2.6437 C.3       1 <0>         0.1527
     26 N6         -2.7976   -3.9461    2.3768 N.pl3     1 <0>        -0.6746
     27 C18        -2.0981   -4.4870    1.2014 C.3       1 <0>         0.1550
     28 C19        -0.6414   -4.0133    1.2411 C.3       1 <0>         0.0337
     29 C20        -3.5394   -4.7814    3.2180 C.ar      1 <0>         0.1371
     30 C21        -4.8848   -5.0090    2.9623 C.ar      1 <0>        -0.0967
     31 C22        -5.6150   -5.8351    3.7947 C.ar      1 <0>        -0.1261
     32 C23        -5.0081   -6.4353    4.8826 C.ar      1 <0>        -0.0941
     33 C24        -3.6684   -6.2114    5.1419 C.ar      1 <0>        -0.1529
     34 C25        -2.9297   -5.3907    4.3094 C.ar      1 <0>         0.0901
     35 F1         -1.6193   -5.1767    4.5592 F         1 <0>        -0.1322
     36 H2          1.0039    1.9031    0.0027 H         1 <0>         0.0507
     37 H3         -0.5459    1.8868   -0.8726 H         1 <0>         0.0565
     38 H4         -0.5289    1.8773    0.9072 H         1 <0>         0.0546
     39 H5         -1.0205   -0.3814    0.0098 H         1 <0>         0.0799
     40 H6          0.5123   -0.3556   -0.8948 H         1 <0>         0.0591
     41 H7          1.7647   -0.1336    1.2338 H         1 <0>         0.0665
     42 H8          0.2319   -0.1594    2.1383 H         1 <0>         0.0800
     43 H9          4.3005   -4.0909    1.2316 H         1 <0>         0.1160
     44 H10         2.9771   -3.4091    0.2559 H         1 <0>         0.1095
     45 H11         3.8107   -1.1212    0.7241 H         1 <0>         0.0840
     46 H12         5.1341   -1.8030    1.6998 H         1 <0>         0.0901
     47 H13         6.9584   -3.0091    0.6486 H         1 <0>         0.1302
     48 H14         8.3102   -3.3182   -1.3848 H         1 <0>         0.1386
     49 H15         3.7922   -1.3662   -1.6891 H         1 <0>         0.1371
     50 H16         3.4460   -0.7749   -5.0161 H         1 <0>         0.1027
     51 H17         3.0163   -1.7523   -3.5919 H         1 <0>         0.0555
     52 H18         3.7081   -0.1261   -3.3795 H         1 <0>         0.0560
     53 H19         9.4567   -2.6211   -2.9932 H         1 <0>         0.0563
     54 H20         8.7654   -4.2476   -3.2058 H         1 <0>         0.0563
     55 H21         9.3463   -3.3355   -4.6197 H         1 <0>         0.1028
     56 H22        -0.7031   -2.5824    3.4630 H         1 <0>         0.0848
     57 H23        -1.1281   -1.0246    2.7129 H         1 <0>         0.0855
     58 H24        -3.1236   -2.2810    3.6216 H         1 <0>         0.0719
     59 H25        -3.2323   -1.9498    1.8725 H         1 <0>         0.0591
     60 H26        -2.1297   -5.5763    1.2258 H         1 <0>         0.0705
     61 H27        -2.5765   -4.1243    0.2917 H         1 <0>         0.0637
     62 H28        -0.1365   -4.3123    0.3226 H         1 <0>         0.0785
     63 H29        -0.1363   -4.4615    2.0968 H         1 <0>         0.0379
     64 H30        -5.3604   -4.5403    2.1134 H         1 <0>         0.1317
     65 H31        -6.6616   -6.0120    3.5957 H         1 <0>         0.1298
     66 H32        -5.5820   -7.0802    5.5316 H         1 <0>         0.1320
     67 H33        -3.1975   -6.6815    5.9926 H         1 <0>         0.1338
@<TRIPOS>BOND
     1    1    2 1
     2    1   36 1
     3    1   37 1
     4    1   38 1
     5    2    3 1
     6    2   39 1
     7    2   40 1
     8    3    4 1
     9    3   41 1
    10    3   42 1
    11    4    5 1
    12    4    6 1
    13    4   23 1
    14    6   10 1
    15    6    7 2
    16    7    8 1
    17    8    9 2
    18    9   10 1
    19   10   11 1
    20   11   12 1
    21   11   43 1
    22   11   44 1
    23   12   13 1
    24   12   45 1
    25   12   46 1
    26   13   18 ar
    27   13   14 ar
    28   14   15 ar
    29   14   47 1
    30   15   16 ar
    31   15   48 1
    32   16   17 ar
    33   16   21 1
    34   17   18 ar
    35   17   19 1
    36   18   49 1
    37   19   20 1
    38   20   50 1
    39   20   51 1
    40   20   52 1
    41   21   22 1
    42   22   53 1
    43   22   54 1
    44   22   55 1
    45   23   28 1
    46   23   24 1
    47   24   25 1
    48   24   56 1
    49   24   57 1
    50   25   26 1
    51   25   58 1
    52   25   59 1
    53   26   27 1
    54   26   29 1
    55   27   28 1
    56   27   60 1
    57   27   61 1
    58   28   62 1
    59   28   63 1
    60   29   34 ar
    61   29   30 ar
    62   30   31 ar
    63   30   64 1
    64   31   32 ar
    65   31   65 1
    66   32   33 ar
    67   32   66 1
    68   33   34 ar
    69   33   67 1
    70   34   35 1
@<TRIPOS>MOLECULE
ZINC12245187
   59    62     0     0     0
SMALL
USER_CHARGES
N-[[4-benzyl-5-[[(2S)-tetrahydrofuran-2-yl]methylsulfanyl]-1,2,4-triazol-3-yl]methyl]-2-cyclopentyl-acetamide
@<TRIPOS>ATOM
      1 C1         -1.2190    1.7506    0.0173 C.ar      1 <0>        -0.1027
      2 C2         -0.0126    1.0758    0.0080 C.ar      1 <0>        -0.1214
      3 C3          1.1750    1.7832    0.0004 C.ar      1 <0>        -0.0980
      4 C4          1.1563    3.1654    0.0076 C.ar      1 <0>        -0.1237
      5 C5         -0.0501    3.8402    0.0223 C.ar      1 <0>        -0.0905
      6 C6         -1.2377    3.1328    0.0299 C.ar      1 <0>        -0.1184
      7 C7          2.4510    3.9366   -0.0011 C.3       1 <0>         0.1439
      8 N1          2.8570    4.1935   -1.3851 N.pl3     1 <0>        -0.4485
      9 C8          3.6482    3.4044   -2.1735 C.2       1 <0>         0.1623
     10 N2          3.7571    3.9962   -3.3292 N.2       1 <0>        -0.2585
     11 N3          3.1015    5.1016   -3.3224 N.2       1 <0>        -0.2903
     12 C9          2.5290    5.2734   -2.1535 C.2       1 <0>         0.1659
     13 S1          1.5274    6.6392   -1.6681 S.3       1 <0>         0.0187
     14 C10         1.5655    7.6144   -3.1925 C.3       1 <0>        -0.0998
     15 C11         0.7382    8.8876   -3.0042 C.3       1 <0>         0.0871
     16 H1         -0.2607    8.6405   -2.6446 H         1 <0>         0.0808
     17 C12         0.6527    9.6744   -4.3309 C.3       1 <0>        -0.1444
     18 C13         0.7190   11.1550   -3.8942 C.3       1 <0>        -0.1557
     19 C14         0.8366   11.0876   -2.3553 C.3       1 <0>         0.0432
     20 O1          1.3983    9.7848   -2.0850 O.3       1 <0>        -0.3647
     21 C15         4.2752    2.0918   -1.7796 C.3       1 <0>         0.2127
     22 N4          3.3588    0.9960   -2.1043 N.am      1 <0>        -0.7305
     23 C16         3.7105   -0.2777   -1.8387 C.2       1 <0>         0.5165
     24 O2          4.7856   -0.5166   -1.3308 O.2       1 <0>        -0.5277
     25 C17         2.7678   -1.4050   -2.1727 C.3       1 <0>        -0.1339
     26 C18         3.4044   -2.7376   -1.7728 C.3       1 <0>        -0.0764
     27 C19         4.6206   -3.0338   -2.6743 C.3       1 <0>        -0.1148
     28 C20         4.5670   -4.5663   -2.8931 C.3       1 <0>        -0.1281
     29 C21         3.0479   -4.8405   -3.0195 C.3       1 <0>        -0.1258
     30 C22         2.4044   -3.8863   -1.9923 C.3       1 <0>        -0.1222
     31 H2         -2.1469    1.1980    0.0188 H         1 <0>         0.1263
     32 H3          0.0021   -0.0041    0.0020 H         1 <0>         0.1259
     33 H4          2.1175    1.2560   -0.0115 H         1 <0>         0.1234
     34 H5         -0.0647    4.9201    0.0276 H         1 <0>         0.1273
     35 H6         -2.1802    3.6600    0.0410 H         1 <0>         0.1278
     36 H7          2.3128    4.8845    0.5189 H         1 <0>         0.1103
     37 H8          3.2235    3.3553    0.5023 H         1 <0>         0.1102
     38 H9          2.5958    7.8819   -3.4270 H         1 <0>         0.1079
     39 H10         1.1475    7.0271   -4.0101 H         1 <0>         0.1121
     40 H11         1.4962    9.4284   -4.9759 H         1 <0>         0.0827
     41 H12        -0.2899    9.4675   -4.8376 H         1 <0>         0.0835
     42 H13         1.5952   11.6410   -4.3233 H         1 <0>         0.0787
     43 H14        -0.1909   11.6801   -4.1850 H         1 <0>         0.0799
     44 H15         1.5017   11.8706   -1.9910 H         1 <0>         0.0952
     45 H16        -0.1470   11.1816   -1.8951 H         1 <0>         0.0623
     46 H17         5.2097    1.9576   -2.3245 H         1 <0>         0.1071
     47 H18         4.4761    2.0921   -0.7083 H         1 <0>         0.0876
     48 H19         2.4989    1.1870   -2.5105 H         1 <0>         0.4040
     49 H20         1.8333   -1.2707   -1.6278 H         1 <0>         0.0928
     50 H21         2.5669   -1.4053   -3.2440 H         1 <0>         0.0959
     51 H22         3.7124   -2.7052   -0.7277 H         1 <0>         0.0804
     52 H23         4.5274   -2.5092   -3.6253 H         1 <0>         0.0605
     53 H24         5.5458   -2.7524   -2.1714 H         1 <0>         0.0736
     54 H25         4.9848   -5.0937   -2.0355 H         1 <0>         0.0663
     55 H26         5.0873   -4.8440   -3.8097 H         1 <0>         0.0648
     56 H27         2.8253   -5.8776   -2.7685 H         1 <0>         0.0641
     57 H28         2.7007   -4.6077   -4.0262 H         1 <0>         0.0643
     58 H29         2.2278   -4.4120   -1.0539 H         1 <0>         0.0655
     59 H30         1.4656   -3.4945   -2.3837 H         1 <0>         0.0644
@<TRIPOS>BOND
     1    1    6 ar
     2    1    2 ar
     3    1   31 1
     4    2    3 ar
     5    2   32 1
     6    3    4 ar
     7    3   33 1
     8    4    5 ar
     9    4    7 1
    10    5    6 ar
    11    5   34 1
    12    6   35 1
    13    7    8 1
    14    7   36 1
    15    7   37 1
    16    8   12 1
    17    8    9 1
    18    9   10 2
    19    9   21 1
    20   10   11 1
    21   11   12 2
    22   12   13 1
    23   13   14 1
    24   14   15 1
    25   14   38 1
    26   14   39 1
    27   15   16 1
    28   15   20 1
    29   15   17 1
    30   17   18 1
    31   17   40 1
    32   17   41 1
    33   18   19 1
    34   18   42 1
    35   18   43 1
    36   19   20 1
    37   19   44 1
    38   19   45 1
    39   21   22 1
    40   21   46 1
    41   21   47 1
    42   22   23 am
    43   22   48 1
    44   23   24 2
    45   23   25 1
    46   25   26 1
    47   25   49 1
    48   25   50 1
    49   26   30 1
    50   26   27 1
    51   26   51 1
    52   27   28 1
    53   27   52 1
    54   27   53 1
    55   28   29 1
    56   28   54 1
    57   28   55 1
    58   29   30 1
    59   29   56 1
    60   29   57 1
    61   30   58 1
    62   30   59 1
@<TRIPOS>MOLECULE
ZINC22610257
   44    45     0     0     0
SMALL
USER_CHARGES
2-[ethyl-[2-[4-(trifluoromethyl)pyrimidin-2-yl]sulfanylacetyl]amino]-N-(2-thienylmethyl)acetamide
@<TRIPOS>ATOM
      1 C1         -0.6331    4.2459   -1.6796 C.3       1 <0>        -0.1715
      2 C2          0.8356    4.2764   -1.2518 C.3       1 <0>         0.1012
      3 N1          0.9913    3.5513    0.0117 N.am      1 <0>        -0.5890
      4 C3          1.2785    2.1147    0.0012 C.3       1 <0>         0.0958
      5 C4         -0.0162    1.3436    0.0094 C.2       1 <0>         0.4989
      6 O1         -1.0746    1.9356    0.0177 O.2       1 <0>        -0.5260
      7 N2          0.0021   -0.0041    0.0020 N.am      1 <0>        -0.7382
      8 C5         -1.2565   -0.7538    0.0100 C.3       1 <0>         0.2107
      9 C6         -0.9611   -2.2315   -0.0007 C.2       1 <0>        -0.1725
     10 C7         -0.7783   -3.0731    1.0460 C.2       1 <0>        -0.1311
     11 C8         -0.5187   -4.4075    0.7958 C.2       1 <0>        -0.1628
     12 C9         -0.4441   -4.8330   -0.4890 C.2       1 <0>        -0.1622
     13 S1         -0.7534   -3.3263   -1.3955 S.3       1 <0>         0.0485
     14 C10         0.8703    4.2058    1.1836 C.2       1 <0>         0.5423
     15 O2          0.9993    3.6055    2.2295 O.2       1 <0>        -0.5198
     16 C11         0.5749    5.6835    1.1944 C.3       1 <0>        -0.1587
     17 S2          0.4729    6.2660    2.9050 S.3       1 <0>         0.1160
     18 C12         0.1295    7.9717    2.6275 C.ar      1 <0>         0.2849
     19 N3          0.0297    8.4178    1.3831 N.ar      1 <0>        -0.5097
     20 C13        -0.2276    9.6920    1.1404 C.ar      1 <0>         0.1801
     21 C14        -0.3933   10.5635    2.2060 C.ar      1 <0>        -0.1922
     22 C15        -0.2825   10.0640    3.4941 C.ar      1 <0>         0.1084
     23 N4         -0.0285    8.7776    3.6679 N.ar      1 <0>        -0.4637
     24 C16        -0.4556   10.9745    4.6825 C.3       1 <0>         0.5258
     25 F1         -1.8022   10.9966    5.0608 F         1 <0>        -0.1631
     26 F2          0.3203   10.5040    5.7473 F         1 <0>        -0.1570
     27 F3         -0.0453   12.2681    4.3425 F         1 <0>        -0.1642
     28 H1         -0.7500    4.7903   -2.6283 H         1 <0>         0.0650
     29 H2         -1.2507    4.7230   -0.9045 H         1 <0>         0.0583
     30 H3         -0.9543    3.2024   -1.8136 H         1 <0>         0.0706
     31 H4          1.4532    3.7993   -2.0269 H         1 <0>         0.0852
     32 H5          1.1569    5.3199   -1.1178 H         1 <0>         0.0856
     33 H6          1.8503    1.8617   -0.9038 H         1 <0>         0.1138
     34 H7          1.8674    1.8520    0.8923 H         1 <0>         0.1188
     35 H8          0.9621   -0.5411   -0.0100 H         1 <0>         0.4249
     36 H9         -1.8283   -0.5007    0.9150 H         1 <0>         0.0895
     37 H10        -1.8454   -0.4911   -0.8812 H         1 <0>         0.0818
     38 H11        -0.8373   -2.7070    2.0603 H         1 <0>         0.1356
     39 H12        -0.3729   -5.0999    1.6117 H         1 <0>         0.1367
     40 H13        -0.2481   -5.8257   -0.8664 H         1 <0>         0.1878
     41 H14         1.3788    6.2219    0.6711 H         1 <0>         0.1296
     42 H15        -0.3826    5.8698    0.6859 H         1 <0>         0.1314
     43 H16        -0.3074   10.0496    0.1245 H         1 <0>         0.1886
     44 H17        -0.6046   11.6089    2.0359 H         1 <0>         0.1660
@<TRIPOS>BOND
     1    1    2 1
     2    1   28 1
     3    1   29 1
     4    1   30 1
     5    2    3 1
     6    2   31 1
     7    2   32 1
     8    3    4 1
     9    3   14 am
    10    4    5 1
    11    4   33 1
    12    4   34 1
    13    5    6 2
    14    5    7 am
    15    7    8 1
    16    7   35 1
    17    8    9 1
    18    8   36 1
    19    8   37 1
    20    9   13 1
    21    9   10 2
    22   10   11 1
    23   10   38 1
    24   11   12 2
    25   11   39 1
    26   12   13 1
    27   12   40 1
    28   14   15 2
    29   14   16 1
    30   16   17 1
    31   16   41 1
    32   16   42 1
    33   17   18 1
    34   18   23 ar
    35   18   19 ar
    36   19   20 ar
    37   20   21 ar
    38   20   43 1
    39   21   22 ar
    40   21   44 1
    41   22   23 ar
    42   22   24 1
    43   24   25 1
    44   24   26 1
    45   24   27 1
@<TRIPOS>MOLECULE
ZINC36249762
   62    65     0     0     0
SMALL
USER_CHARGES

@<TRIPOS>ATOM
      1 C1         -1.9241    2.2548    0.5357 C.3       1 <0>         0.0305
      2 O1         -1.4248    0.9285    0.3525 O.3       1 <0>        -0.3701
      3 C2         -0.7831    0.7178   -0.9068 C.3       1 <0>         0.0668
      4 C3         -0.2907   -0.7283   -0.9926 C.3       1 <0>         0.0562
      5 N1         -1.4426   -1.6397   -0.9729 N.3       1 <0>        -0.5165
      6 C4         -1.0204   -3.0153   -0.6770 C.3       1 <0>         0.1108
      7 C5         -0.4062   -3.0674    0.6982 C.2       1 <0>        -0.3283
      8 C6          0.9721   -3.0165    0.9936 C.2       1 <0>         0.1793
      9 N2          1.1094   -3.0873    2.2974 N.2       1 <0>        -0.3285
     10 O2         -0.1823   -3.1856    2.8689 O.3       1 <0>        -0.1117
     11 C7         -1.0820   -3.1657    1.8709 C.2       1 <0>         0.3987
     12 N3         -2.4558   -3.2358    2.0137 N.pl3     1 <0>        -0.5817
     13 C8         -3.4333   -3.2225    0.9155 C.3       1 <0>         0.1163
     14 C9         -4.8377   -3.2934    1.5512 C.3       1 <0>        -0.1322
     15 C10        -4.5936   -2.7722    2.9921 C.3       1 <0>        -0.1322
     16 C11        -3.1824   -3.3425    3.2920 C.3       1 <0>         0.1026
     17 C12         2.0734   -2.9028    0.0045 C.ar      1 <0>        -0.0283
     18 C13         3.1456   -2.0472    0.2474 C.ar      1 <0>        -0.0879
     19 C14         4.1671   -1.9457   -0.6753 C.ar      1 <0>        -0.1189
     20 C15         4.1275   -2.6916   -1.8394 C.ar      1 <0>        -0.1064
     21 C16         3.0653   -3.5427   -2.0856 C.ar      1 <0>        -0.1209
     22 C17         2.0412   -3.6557   -1.1672 C.ar      1 <0>        -0.0916
     23 C18        -2.1848   -1.5777   -2.2391 C.3       1 <0>         0.0238
     24 C19        -3.5699   -2.1994   -2.0493 C.3       1 <0>         0.1532
     25 H1         -4.0696   -1.7228   -1.2060 H         1 <0>         0.1177
     26 C20        -4.3876   -1.9950   -3.2986 C.ar      1 <0>        -0.1157
     27 C21        -4.2819   -2.8888   -4.3478 C.ar      1 <0>        -0.1111
     28 C22        -5.0320   -2.7014   -5.4937 C.ar      1 <0>        -0.1163
     29 C23        -5.8881   -1.6204   -5.5902 C.ar      1 <0>        -0.1187
     30 C24        -5.9945   -0.7271   -4.5406 C.ar      1 <0>        -0.1169
     31 C25        -5.2476   -0.9169   -3.3930 C.ar      1 <0>        -0.1088
     32 O3         -3.4329   -3.5986   -1.7932 O.3       1 <0>        -0.5467
     33 H2         -1.1000    2.9654    0.4718 H         1 <0>         0.0367
     34 H3         -2.6569    2.4775   -0.2399 H         1 <0>         0.0374
     35 H4         -2.3964    2.3332    1.5150 H         1 <0>         0.0831
     36 H5         -1.4921    0.9086   -1.7123 H         1 <0>         0.0456
     37 H6          0.0647    1.3964   -1.0006 H         1 <0>         0.0474
     38 H7          0.2671   -0.8678   -1.9186 H         1 <0>         0.0463
     39 H8          0.3569   -0.9427   -0.1425 H         1 <0>         0.0878
     40 H9         -1.8860   -3.6768   -0.7136 H         1 <0>         0.1177
     41 H10        -0.2859   -3.3367   -1.4154 H         1 <0>         0.0388
     42 H11        -3.3326   -2.3018    0.3408 H         1 <0>         0.0969
     43 H12        -3.2753   -4.0852    0.2683 H         1 <0>         0.0854
     44 H13        -5.5348   -2.6456    1.0197 H         1 <0>         0.0828
     45 H14        -5.2014   -4.3208    1.5692 H         1 <0>         0.0754
     46 H15        -4.5921   -1.6826    3.0184 H         1 <0>         0.0785
     47 H16        -5.3319   -3.1771    3.6843 H         1 <0>         0.0853
     48 H17        -3.2503   -4.3847    3.6039 H         1 <0>         0.0697
     49 H18        -2.6885   -2.7471    4.0599 H         1 <0>         0.0760
     50 H19         3.1773   -1.4641    1.1559 H         1 <0>         0.1270
     51 H20         4.9986   -1.2824   -0.4881 H         1 <0>         0.1281
     52 H21         4.9287   -2.6089   -2.5589 H         1 <0>         0.1258
     53 H22         3.0391   -4.1226   -2.9963 H         1 <0>         0.1275
     54 H23         1.2145   -4.3239   -1.3583 H         1 <0>         0.1289
     55 H24        -2.2924   -0.5375   -2.5465 H         1 <0>         0.0834
     56 H25        -1.6411   -2.1290   -3.0063 H         1 <0>         0.0402
     57 H26        -3.6130   -3.7334   -4.2723 H         1 <0>         0.1191
     58 H27        -4.9489   -3.3993   -6.3137 H         1 <0>         0.1228
     59 H28        -6.4736   -1.4735   -6.4858 H         1 <0>         0.1223
     60 H29        -6.6632    0.1177   -4.6162 H         1 <0>         0.1232
     61 H30        -5.3335   -0.2210   -2.5716 H         1 <0>         0.1227
     62 H31        -2.9956   -4.0875   -2.5037 H         1 <0>         0.3715
@<TRIPOS>BOND
     1    1    2 1
     2    1   33 1
     3    1   34 1
     4    1   35 1
     5    2    3 1
     6    3    4 1
     7    3   36 1
     8    3   37 1
     9    4    5 1
    10    4   38 1
    11    4   39 1
    12    5    6 1
    13    5   23 1
    14    6    7 1
    15    6   40 1
    16    6   41 1
    17    7   11 2
    18    7    8 1
    19    8    9 2
    20    8   17 1
    21    9   10 1
    22   10   11 1
    23   11   12 1
    24   12   16 1
    25   12   13 1
    26   13   14 1
    27   13   42 1
    28   13   43 1
    29   14   15 1
    30   14   44 1
    31   14   45 1
    32   15   16 1
    33   15   46 1
    34   15   47 1
    35   16   48 1
    36   16   49 1
    37   17   22 ar
    38   17   18 ar
    39   18   19 ar
    40   18   50 1
    41   19   20 ar
    42   19   51 1
    43   20   21 ar
    44   20   52 1
    45   21   22 ar
    46   21   53 1
    47   22   54 1
    48   23   24 1
    49   23   55 1
    50   23   56 1
    51   24   25 1
    52   24   26 1
    53   24   32 1
    54   26   31 ar
    55   26   27 ar
    56   27   28 ar
    57   27   57 1
    58   28   29 ar
    59   28   58 1
    60   29   30 ar
    61   29   59 1
    62   30   31 ar
    63   30   60 1
    64   31   61 1
    65   32   62 1
@<TRIPOS>MOLECULE
ZINC49427799
   51    53     0     0     0
SMALL
USER_CHARGES

@<TRIPOS>ATOM
      1 C1         -0.0167    1.3784    0.0096 C.ar      1 <0>        -0.1567
      2 C2          1.1698    2.0883    0.0021 C.ar      1 <0>        -0.0800
      3 C3          2.3773    1.4175   -0.0134 C.ar      1 <0>        -0.1510
      4 C4          2.3989    0.0304   -0.0210 C.ar      1 <0>         0.1263
      5 C5          1.2070   -0.6796   -0.0130 C.ar      1 <0>        -0.2096
      6 C6          0.0021   -0.0041    0.0020 C.ar      1 <0>        -0.0802
      7 O1          3.5855   -0.6319   -0.0368 O.3       1 <0>        -0.3135
      8 C7          3.5315   -2.0598   -0.0438 C.3       1 <0>         0.0461
      9 C8          4.9536   -2.6239   -0.0615 C.3       1 <0>         0.1220
     10 N1          5.6356   -2.2681    1.1853 N.am      1 <0>        -0.7292
     11 C9          6.9079   -2.6610    1.3933 C.2       1 <0>         0.5142
     12 O2          7.4882   -3.3093    0.5484 O.2       1 <0>        -0.5369
     13 C10         7.6095   -2.2949    2.6758 C.3       1 <0>        -0.1370
     14 C11         9.0316   -2.8590    2.6582 C.3       1 <0>        -0.1204
     15 C12         9.7438   -2.4873    3.9603 C.3       1 <0>         0.0869
     16 N2         11.1055   -3.0275    3.9434 N.am      1 <0>        -0.5221
     17 C13        11.3425   -4.2648    4.4235 C.2       1 <0>         0.3831
     18 N3         12.5394   -4.7825    4.4263 N.2       1 <0>        -0.5354
     19 C14        13.5961   -4.1027    3.9484 C.2       1 <0>         0.2233
     20 C15        13.4141   -2.8266    3.4420 C.2       1 <0>        -0.2829
     21 C16        12.1158   -2.2863    3.4422 C.2       1 <0>         0.5204
     22 O3         11.9074   -1.1677    3.0015 O.2       1 <0>        -0.5324
     23 C17        14.9449   -4.7136    3.9637 C.ar      1 <0>        -0.0757
     24 C18        16.0405   -4.0034    3.4723 C.ar      1 <0>        -0.0598
     25 C19        17.2946   -4.5766    3.4887 C.ar      1 <0>        -0.1586
     26 C20        17.4675   -5.8565    3.9920 C.ar      1 <0>         0.1194
     27 C21        16.3821   -6.5664    4.4810 C.ar      1 <0>        -0.1619
     28 C22        15.1251   -5.9992    4.4750 C.ar      1 <0>        -0.0409
     29 F1         18.6980   -6.4141    4.0055 F         1 <0>        -0.1344
     30 H1         -0.9596    1.9047    0.0260 H         1 <0>         0.1248
     31 H2          1.1525    3.1682    0.0080 H         1 <0>         0.1303
     32 H3          3.3038    1.9724   -0.0200 H         1 <0>         0.1306
     33 H4          1.2211   -1.7595   -0.0193 H         1 <0>         0.1271
     34 H5         -0.9260   -0.5563    0.0082 H         1 <0>         0.1255
     35 H6          3.0134   -2.4083    0.8497 H         1 <0>         0.0715
     36 H7          2.9951   -2.3988   -0.9302 H         1 <0>         0.0817
     37 H8          4.9129   -3.7090   -0.1564 H         1 <0>         0.0918
     38 H9          5.4999   -2.2055   -0.9067 H         1 <0>         0.0812
     39 H10         5.1715   -1.7496    1.8611 H         1 <0>         0.4049
     40 H11         7.6501   -1.2098    2.7708 H         1 <0>         0.1012
     41 H12         7.0631   -2.7134    3.5211 H         1 <0>         0.0998
     42 H13         8.9909   -3.9441    2.5632 H         1 <0>         0.0785
     43 H14         9.5779   -2.4406    1.8129 H         1 <0>         0.0818
     44 H15         9.7845   -1.4023    4.0552 H         1 <0>         0.1061
     45 H16         9.1974   -2.9058    4.8055 H         1 <0>         0.1002
     46 H17        10.5190   -4.8425    4.8166 H         1 <0>         0.2074
     47 H18        14.2483   -2.2616    3.0530 H         1 <0>         0.1579
     48 H19        15.9067   -3.0063    3.0793 H         1 <0>         0.1406
     49 H20        18.1433   -4.0276    3.1084 H         1 <0>         0.1429
     50 H21        16.5218   -7.5635    4.8718 H         1 <0>         0.1423
     51 H22        14.2808   -6.5512    4.8607 H         1 <0>         0.1487
@<TRIPOS>BOND
     1    1    6 ar
     2    1    2 ar
     3    1   30 1
     4    2    3 ar
     5    2   31 1
     6    3    4 ar
     7    3   32 1
     8    4    5 ar
     9    4    7 1
    10    5    6 ar
    11    5   33 1
    12    6   34 1
    13    7    8 1
    14    8    9 1
    15    8   35 1
    16    8   36 1
    17    9   10 1
    18    9   37 1
    19    9   38 1
    20   10   11 am
    21   10   39 1
    22   11   12 2
    23   11   13 1
    24   13   14 1
    25   13   40 1
    26   13   41 1
    27   14   15 1
    28   14   42 1
    29   14   43 1
    30   15   16 1
    31   15   44 1
    32   15   45 1
    33   16   21 am
    34   16   17 1
    35   17   18 2
    36   17   46 1
    37   18   19 1
    38   19   20 2
    39   19   23 1
    40   20   21 1
    41   20   47 1
    42   21   22 2
    43   23   28 ar
    44   23   24 ar
    45   24   25 ar
    46   24   48 1
    47   25   26 ar
    48   25   49 1
    49   26   27 ar
    50   26   29 1
    51   27   28 ar
    52   27   50 1
    53   28   51 1
@<TRIPOS>MOLECULE
ZINC66128732
   59    61     0     0     0
SMALL
USER_CHARGES

@<TRIPOS>ATOM
      1 C1         -0.0187    1.5258    0.0104 C.3       1 <0>        -0.1541
      2 C2          0.0021   -0.0041    0.0020 C.3       1 <0>        -0.1370
      3 C3          0.7421   -0.5109    1.2415 C.3       1 <0>         0.4602
      4 N1          2.1118    0.0154    1.2386 N.pl3     1 <0>        -0.7424
      5 C4          3.0592   -0.5787    2.0649 C.ar      1 <0>         0.2388
      6 C5          4.1312    0.1341    2.5747 C.ar      1 <0>        -0.1855
      7 C6          5.0533   -0.5023    3.3832 C.ar      1 <0>        -0.0517
      8 C7          4.9140   -1.8474    3.6871 C.ar      1 <0>        -0.1727
      9 C8          3.8496   -2.5709    3.1908 C.ar      1 <0>        -0.0203
     10 C9          2.9097   -1.9407    2.3783 C.ar      1 <0>        -0.1995
     11 C10         1.7424   -2.6640    1.8436 C.2       1 <0>         0.5762
     12 O1          1.6659   -3.8725    1.9546 O.2       1 <0>        -0.5297
     13 N2          0.7601   -1.9739    1.2304 N.am      1 <0>        -0.6135
     14 C11        -0.3084   -2.7015    0.5411 C.3       1 <0>         0.1126
     15 C12         0.0924   -2.9360   -0.9167 C.3       1 <0>        -0.1394
     16 C13        -1.0235   -3.6959   -1.6365 C.3       1 <0>         0.0640
     17 O2         -0.6491   -3.9149   -2.9981 O.3       1 <0>        -0.3918
     18 C14        -1.6276   -4.6210   -3.7636 C.3       1 <0>         0.0312
     19 C15         0.0294   -0.0302    2.4793 C.ar      1 <0>        -0.1532
     20 C16        -0.9667   -0.8035    3.0464 C.ar      1 <0>        -0.0593
     21 C17        -1.6219   -0.3649    4.1807 C.ar      1 <0>        -0.1514
     22 C18        -1.2793    0.8524    4.7512 C.ar      1 <0>         0.1413
     23 C19        -0.2792    1.6263    4.1805 C.ar      1 <0>        -0.2124
     24 C20         0.3765    1.1808    3.0492 C.ar      1 <0>        -0.0468
     25 O3         -1.9226    1.2863    5.8669 O.3       1 <0>        -0.3054
     26 C21        -1.5177    2.5490    6.3995 C.3       1 <0>         0.0608
     27 C22        -2.3479    2.8671    7.6447 C.3       1 <0>         0.0614
     28 O4         -2.0557    1.9138    8.6683 O.3       1 <0>        -0.3851
     29 C23        -2.7825    2.1218    9.8810 C.3       1 <0>         0.0303
     30 H1          1.0039    1.9031    0.0027 H         1 <0>         0.0552
     31 H2         -0.5459    1.8868   -0.8726 H         1 <0>         0.0664
     32 H3         -0.5289    1.8773    0.9072 H         1 <0>         0.0669
     33 H4         -1.0205   -0.3814    0.0098 H         1 <0>         0.0883
     34 H5          0.5123   -0.3556   -0.8948 H         1 <0>         0.0859
     35 H6          2.3521    0.7638    0.6702 H         1 <0>         0.4115
     36 H7          4.2462    1.1823    2.3412 H         1 <0>         0.1280
     37 H8          5.8898    0.0529    3.7814 H         1 <0>         0.1278
     38 H9          5.6447   -2.3329    4.3170 H         1 <0>         0.1277
     39 H10         3.7458   -3.6189    3.4301 H         1 <0>         0.1343
     40 H11        -0.4701   -3.6610    1.0324 H         1 <0>         0.0947
     41 H12        -1.2273   -2.1163    0.5756 H         1 <0>         0.0838
     42 H13         0.2541   -1.9765   -1.4079 H         1 <0>         0.0777
     43 H14         1.0114   -3.5212   -0.9512 H         1 <0>         0.0759
     44 H15        -1.1851   -4.6554   -1.1453 H         1 <0>         0.0526
     45 H16        -1.9424   -3.1107   -1.6020 H         1 <0>         0.0507
     46 H17        -2.5591   -4.0549   -3.7732 H         1 <0>         0.0418
     47 H18        -1.2684   -4.7468   -4.7850 H         1 <0>         0.0869
     48 H19        -1.8018   -5.5997   -3.3165 H         1 <0>         0.0425
     49 H20        -1.2330   -1.7511    2.6019 H         1 <0>         0.1283
     50 H21        -2.4003   -0.9690    4.6229 H         1 <0>         0.1322
     51 H22        -0.0107    2.5743    4.6228 H         1 <0>         0.1284
     52 H23         1.1582    1.7808    2.6071 H         1 <0>         0.1256
     53 H24        -0.4619    2.5087    6.6673 H         1 <0>         0.0726
     54 H25        -1.6733    3.3259    5.6509 H         1 <0>         0.0790
     55 H26        -2.1019    3.8680    7.9994 H         1 <0>         0.0730
     56 H27        -3.4082    2.8200    7.3963 H         1 <0>         0.0622
     57 H28        -2.5455    3.1072   10.2821 H         1 <0>         0.0424
     58 H29        -3.8517    2.0593    9.6790 H         1 <0>         0.0434
     59 H30        -2.5045    1.3576   10.6068 H         1 <0>         0.0887
@<TRIPOS>BOND
     1    1    2 1
     2    1   30 1
     3    1   31 1
     4    1   32 1
     5    2    3 1
     6    2   33 1
     7    2   34 1
     8    3   13 1
     9    3    4 1
    10    3   19 1
    11    4    5 1
    12    4   35 1
    13    5   10 ar
    14    5    6 ar
    15    6    7 ar
    16    6   36 1
    17    7    8 ar
    18    7   37 1
    19    8    9 ar
    20    8   38 1
    21    9   10 ar
    22    9   39 1
    23   10   11 1
    24   11   12 2
    25   11   13 am
    26   13   14 1
    27   14   15 1
    28   14   40 1
    29   14   41 1
    30   15   16 1
    31   15   42 1
    32   15   43 1
    33   16   17 1
    34   16   44 1
    35   16   45 1
    36   17   18 1
    37   18   46 1
    38   18   47 1
    39   18   48 1
    40   19   24 ar
    41   19   20 ar
    42   20   21 ar
    43   20   49 1
    44   21   22 ar
    45   21   50 1
    46   22   23 ar
    47   22   25 1
    48   23   24 ar
    49   23   51 1
    50   24   52 1
    51   25   26 1
    52   26   27 1
    53   26   53 1
    54   26   54 1
    55   27   28 1
    56   27   55 1
    57   27   56 1
    58   28   29 1
    59   29   57 1
    60   29   58 1
    61   29   59 1
@<TRIPOS>MOLECULE
ZINC11550126
   60    62     0     0     0
SMALL
USER_CHARGES
N-[1-(3,4-dimethylphenyl)ethyl]-2-[3-(3-methoxypropyl)-4-oxo-quinazolin-2-yl]sulfanyl-acetamide
@<TRIPOS>ATOM
      1 C1        -11.1309    2.3756   -2.1848 C.3       1 <0>        -0.1209
      2 C2        -10.2173    1.3308   -1.5977 C.ar      1 <0>        -0.0832
      3 C3         -9.1836    1.7080   -0.7605 C.ar      1 <0>        -0.1118
      4 C4         -8.3478    0.7494   -0.2193 C.ar      1 <0>        -0.1165
      5 C5         -8.5404   -0.5859   -0.5216 C.ar      1 <0>        -0.0970
      6 C6         -9.5746   -0.9631   -1.3573 C.ar      1 <0>        -0.1029
      7 C7        -10.4130   -0.0046   -1.8956 C.ar      1 <0>        -0.0809
      8 C8        -11.5400   -0.4158   -2.8077 C.3       1 <0>        -0.1207
      9 C9         -7.6265   -1.6307    0.0651 C.3       1 <0>         0.1866
     10 H1         -7.6892   -2.5428   -0.5284 H         1 <0>         0.0992
     11 C10        -8.0505   -1.9288    1.5047 C.3       1 <0>        -0.1594
     12 N1         -6.2480   -1.1350    0.0547 N.am      1 <0>        -0.7163
     13 C11        -5.2190   -2.0054    0.0407 C.2       1 <0>         0.5340
     14 O1         -5.4343   -3.1989    0.0368 O.2       1 <0>        -0.5223
     15 C12        -3.8009   -1.4955    0.0300 C.3       1 <0>        -0.1517
     16 S1         -2.6559   -2.8972    0.0123 S.3       1 <0>         0.0828
     17 C13        -1.1185   -2.0363    0.0022 C.2       1 <0>         0.3559
     18 N2         -1.1363   -0.7262    0.0095 N.2       1 <0>        -0.5341
     19 C14         0.0021   -0.0041    0.0020 C.ar      1 <0>         0.1692
     20 C15        -0.0169    1.3939    0.0097 C.ar      1 <0>        -0.1142
     21 C16         1.1610    2.0862    0.0022 C.ar      1 <0>        -0.0685
     22 C17         2.3806    1.4216   -0.0131 C.ar      1 <0>        -0.1405
     23 C18         2.4318    0.0550   -0.0209 C.ar      1 <0>        -0.0373
     24 C19         1.2452   -0.6768   -0.0135 C.ar      1 <0>        -0.2018
     25 C20         1.2390   -2.1459   -0.0208 C.2       1 <0>         0.5545
     26 O2          2.2770   -2.7817   -0.0337 O.2       1 <0>        -0.5015
     27 N3          0.0360   -2.7658   -0.0122 N.am      1 <0>        -0.5255
     28 C21        -0.0283   -4.2294   -0.0190 C.3       1 <0>         0.0919
     29 C22        -0.0367   -4.7461    1.4211 C.3       1 <0>        -0.1364
     30 C23        -0.1038   -6.2746    1.4141 C.3       1 <0>         0.0665
     31 O3         -0.1116   -6.7573    2.7591 O.3       1 <0>        -0.3901
     32 C24        -0.1731   -8.1810    2.8653 C.3       1 <0>         0.0312
     33 H2        -11.9752    2.5379   -1.5148 H         1 <0>         0.0723
     34 H3        -10.5821    3.3090   -2.3104 H         1 <0>         0.0666
     35 H4        -11.4961    2.0357   -3.1539 H         1 <0>         0.0716
     36 H5         -9.0309    2.7514   -0.5274 H         1 <0>         0.1242
     37 H6         -7.5425    1.0437    0.4373 H         1 <0>         0.1200
     38 H7         -9.7276   -2.0066   -1.5902 H         1 <0>         0.1248
     39 H8        -12.4357   -0.6049   -2.2160 H         1 <0>         0.0727
     40 H9        -11.7387    0.3828   -3.5225 H         1 <0>         0.0719
     41 H10       -11.2608   -1.3225   -3.3442 H         1 <0>         0.0671
     42 H11        -7.9878   -1.0167    2.0981 H         1 <0>         0.0604
     43 H12        -9.0761   -2.2976    1.5124 H         1 <0>         0.0703
     44 H13        -7.3894   -2.6845    1.9290 H         1 <0>         0.0667
     45 H14        -6.0758   -0.1805    0.0579 H         1 <0>         0.4037
     46 H15        -3.6245   -0.8935    0.9214 H         1 <0>         0.1319
     47 H16        -3.6412   -0.8846   -0.8584 H         1 <0>         0.1314
     48 H17        -0.9579    1.9239    0.0171 H         1 <0>         0.1385
     49 H18         1.1436    3.1660    0.0078 H         1 <0>         0.1345
     50 H19         3.2987    1.9904   -0.0191 H         1 <0>         0.1337
     51 H20         3.3845   -0.4536   -0.0323 H         1 <0>         0.1378
     52 H21        -0.9384   -4.5507   -0.5256 H         1 <0>         0.1015
     53 H22         0.8398   -4.6288   -0.5433 H         1 <0>         0.1099
     54 H23         0.8733   -4.4248    1.9277 H         1 <0>         0.0811
     55 H24        -0.9048   -4.3467    1.9454 H         1 <0>         0.0837
     56 H25        -1.0139   -6.5960    0.9074 H         1 <0>         0.0564
     57 H26         0.7643   -6.6741    0.8897 H         1 <0>         0.0544
     58 H27        -1.0845   -8.5419    2.3888 H         1 <0>         0.0437
     59 H28         0.6936   -8.6200    2.3711 H         1 <0>         0.0426
     60 H29        -0.1751   -8.4671    3.9171 H         1 <0>         0.0879
@<TRIPOS>BOND
     1    1    2 1
     2    1   33 1
     3    1   34 1
     4    1   35 1
     5    2    7 ar
     6    2    3 ar
     7    3    4 ar
     8    3   36 1
     9    4    5 ar
    10    4   37 1
    11    5    6 ar
    12    5    9 1
    13    6    7 ar
    14    6   38 1
    15    7    8 1
    16    8   39 1
    17    8   40 1
    18    8   41 1
    19    9   10 1
    20    9   11 1
    21    9   12 1
    22   11   42 1
    23   11   43 1
    24   11   44 1
    25   12   13 am
    26   12   45 1
    27   13   14 2
    28   13   15 1
    29   15   16 1
    30   15   46 1
    31   15   47 1
    32   16   17 1
    33   17   27 1
    34   17   18 2
    35   18   19 1
    36   19   24 ar
    37   19   20 ar
    38   20   21 ar
    39   20   48 1
    40   21   22 ar
    41   21   49 1
    42   22   23 ar
    43   22   50 1
    44   23   24 ar
    45   23   51 1
    46   24   25 1
    47   25   26 2
    48   25   27 am
    49   27   28 1
    50   28   29 1
    51   28   52 1
    52   28   53 1
    53   29   30 1
    54   29   54 1
    55   29   55 1
    56   30   31 1
    57   30   56 1
    58   30   57 1
    59   31   32 1
    60   32   58 1
    61   32   59 1
    62   32   60 1
@<TRIPOS>MOLECULE
ZINC15002155
   61    65     0     0     0
SMALL
USER_CHARGES
N-[[(2R)-tetrahydrofuran-2-yl]methyl]-N-[[3-[2-(3-thienyl)ethoxy]phenyl]methyl]-1,4,5,6-tetrahydrocyclopenta[d]pyrazole-3-carboxamide
@<TRIPOS>ATOM
      1 C1         -3.7360   -1.2361   -5.0295 C.ar      1 <0>        -0.0843
      2 C2         -4.8309   -2.0720   -5.1509 C.ar      1 <0>        -0.1435
      3 C3         -5.3028   -2.7613   -4.0494 C.ar      1 <0>        -0.0687
      4 C4         -4.6808   -2.6168   -2.8241 C.ar      1 <0>        -0.1252
      5 C5         -3.5821   -1.7793   -2.6997 C.ar      1 <0>         0.1279
      6 C6         -3.1139   -1.0842   -3.8056 C.ar      1 <0>        -0.2057
      7 O1         -2.9686   -1.6356   -1.4956 O.3       1 <0>        -0.3138
      8 C7         -1.8431   -0.7567   -1.4418 C.3       1 <0>         0.0670
      9 C8         -1.2895   -0.7238   -0.0158 C.3       1 <0>        -0.0622
     10 C9         -0.1026    0.2030    0.0410 C.2       1 <0>        -0.1225
     11 C10         1.1730   -0.2757   -0.1923 C.2       1 <0>        -0.1544
     12 C11         2.2188    0.5846   -0.1340 C.2       1 <0>        -0.1689
     13 S1          1.4079    2.1254    0.2606 S.3       1 <0>         0.0363
     14 C12        -0.2700    1.5186    0.3211 C.2       1 <0>        -0.1674
     15 C13        -6.4962   -3.6714   -4.1852 C.3       1 <0>         0.1612
     16 N1         -7.7218   -2.9112   -3.9279 N.am      1 <0>        -0.5895
     17 C14        -8.4145   -2.2424   -5.0320 C.3       1 <0>         0.1163
     18 C15        -9.5053   -3.1634   -5.5823 C.3       1 <0>         0.0675
     19 H1        -10.2136   -3.4121   -4.7920 H         1 <0>         0.0764
     20 C16       -10.2403   -2.4686   -6.7450 C.3       1 <0>        -0.1431
     21 C17       -10.0409   -3.4254   -7.9456 C.3       1 <0>        -0.1564
     22 C18        -9.7110   -4.7660   -7.2412 C.3       1 <0>         0.0459
     23 O2         -8.9130   -4.3632   -6.1073 O.3       1 <0>        -0.3720
     24 C19        -8.2122   -2.8272   -2.6753 C.2       1 <0>         0.6018
     25 O3         -7.5889   -3.3013   -1.7454 O.2       1 <0>        -0.5204
     26 C20        -9.5069   -2.1590   -2.4323 C.2       1 <0>         0.0091
     27 C21       -10.0974   -1.8984   -1.1744 C.2       1 <0>        -0.1581
     28 C22       -11.2664   -1.2762   -1.4393 C.2       1 <0>        -0.0170
     29 N2        -11.3654   -1.1728   -2.7843 N.pl3     1 <0>        -0.3684
     30 H2        -12.1335   -0.7567   -3.2709 H         1 <0>         0.4502
     31 N3        -10.3307   -1.6861   -3.3466 N.2       1 <0>        -0.2514
     32 C23       -11.9862   -0.9487   -0.1503 C.3       1 <0>        -0.0383
     33 C24       -11.3102   -1.8317    0.9221 C.3       1 <0>        -0.1160
     34 C25        -9.9073   -2.0560    0.3147 C.3       1 <0>        -0.0487
     35 H3         -3.3694   -0.6984   -5.8914 H         1 <0>         0.1238
     36 H4         -5.3184   -2.1863   -6.1078 H         1 <0>         0.1218
     37 H5         -5.0497   -3.1558   -1.9639 H         1 <0>         0.1380
     38 H6         -2.2616   -0.4278   -3.7103 H         1 <0>         0.1251
     39 H7         -2.1514    0.2468   -1.7351 H         1 <0>         0.0620
     40 H8         -1.0708   -1.1133   -2.1233 H         1 <0>         0.0628
     41 H9         -0.9812   -1.7274    0.2775 H         1 <0>         0.0843
     42 H10        -2.0619   -0.3673    0.6657 H         1 <0>         0.0844
     43 H11         1.3339   -1.3195   -0.4180 H         1 <0>         0.1357
     44 H12         3.2699    0.3888   -0.2864 H         1 <0>         0.1871
     45 H13        -1.1821    2.0602    0.5237 H         1 <0>         0.1864
     46 H14        -6.5279   -4.0807   -5.1949 H         1 <0>         0.0984
     47 H15        -6.4159   -4.4858   -3.4653 H         1 <0>         0.0930
     48 H16        -8.8668   -1.3188   -4.6709 H         1 <0>         0.1051
     49 H17        -7.7003   -2.0123   -5.8227 H         1 <0>         0.0817
     50 H18       -11.3003   -2.3601   -6.5156 H         1 <0>         0.0742
     51 H19        -9.7925   -1.4969   -6.9530 H         1 <0>         0.0779
     52 H20       -10.9557   -3.5091   -8.5323 H         1 <0>         0.0785
     53 H21        -9.2093   -3.0983   -8.5697 H         1 <0>         0.0771
     54 H22       -10.6242   -5.2612   -6.9113 H         1 <0>         0.0576
     55 H23        -9.1379   -5.4161   -7.9023 H         1 <0>         0.0919
     56 H24       -13.0442   -1.1974   -0.2336 H         1 <0>         0.0786
     57 H25       -11.8626    0.1062    0.0950 H         1 <0>         0.0873
     58 H26       -11.8399   -2.7772    1.0383 H         1 <0>         0.0774
     59 H27       -11.2428   -1.3051    1.8741 H         1 <0>         0.0854
     60 H28        -9.5498   -3.0592    0.5470 H         1 <0>         0.0810
     61 H29        -9.2085   -1.3078    0.6887 H         1 <0>         0.0800
@<TRIPOS>BOND
     1    1    6 ar
     2    1    2 ar
     3    1   35 1
     4    2    3 ar
     5    2   36 1
     6    3    4 ar
     7    3   15 1
     8    4    5 ar
     9    4   37 1
    10    5    6 ar
    11    5    7 1
    12    6   38 1
    13    7    8 1
    14    8    9 1
    15    8   39 1
    16    8   40 1
    17    9   10 1
    18    9   41 1
    19    9   42 1
    20   10   14 2
    21   10   11 1
    22   11   12 2
    23   11   43 1
    24   12   13 1
    25   12   44 1
    26   13   14 1
    27   14   45 1
    28   15   16 1
    29   15   46 1
    30   15   47 1
    31   16   17 1
    32   16   24 am
    33   17   18 1
    34   17   48 1
    35   17   49 1
    36   18   19 1
    37   18   23 1
    38   18   20 1
    39   20   21 1
    40   20   50 1
    41   20   51 1
    42   21   22 1
    43   21   52 1
    44   21   53 1
    45   22   23 1
    46   22   54 1
    47   22   55 1
    48   24   25 2
    49   24   26 1
    50   26   31 2
    51   26   27 1
    52   27   34 1
    53   27   28 2
    54   28   29 1
    55   28   32 1
    56   29   30 1
    57   29   31 1
    58   32   33 1
    59   32   56 1
    60   32   57 1
    61   33   34 1
    62   33   58 1
    63   33   59 1
    64   34   60 1
    65   34   61 1
@<TRIPOS>MOLECULE
ZINC24143183
   60    63     0     0     0
SMALL
USER_CHARGES
2-[(4S)-4-butyl-2,5-dioxo-4-phenyl-imidazolidin-1-yl]-N-cyclopropyl-N-[(2-fluorophenyl)methyl]acetamide
@<TRIPOS>ATOM
      1 C1         -0.7732    1.6017   -3.7270 C.3       1 <0>        -0.1553
      2 C2         -0.0391    1.0801   -2.4901 C.3       1 <0>        -0.1222
      3 C3         -0.7520    1.5719   -1.2288 C.3       1 <0>        -0.1248
      4 C4         -0.0178    1.0503    0.0081 C.3       1 <0>        -0.1147
      5 C5         -0.7307    1.5421    1.2694 C.3       1 <0>         0.1630
      6 C6         -2.1272    0.9586    1.3545 C.2       1 <0>         0.5425
      7 O1         -2.4277   -0.2134    1.4308 O.2       1 <0>        -0.4570
      8 N1         -2.9651    2.0138    1.3286 N.am      1 <0>        -0.5607
      9 C7         -2.2991    3.1708    1.2399 C.2       1 <0>         0.7215
     10 O2         -2.8382    4.2594    1.2012 O.2       1 <0>        -0.5396
     11 N2         -0.9661    2.9946    1.1988 N.am      1 <0>        -0.7244
     12 C8         -4.4250    1.9071    1.3893 C.3       1 <0>         0.0974
     13 C9         -4.8723    1.9477    2.8278 C.2       1 <0>         0.5005
     14 O3         -4.0493    1.9638    3.7185 O.2       1 <0>        -0.5005
     15 N3         -6.1868    1.9659    3.1245 N.am      1 <0>        -0.6008
     16 C10        -6.6220    2.1314    4.5135 C.3       1 <0>         0.1407
     17 C11        -6.7909    3.5981    4.8157 C.ar      1 <0>        -0.1443
     18 C12        -8.0575    4.1442    4.9049 C.ar      1 <0>        -0.0868
     19 C13        -8.2127    5.4893    5.1826 C.ar      1 <0>        -0.1328
     20 C14        -7.1015    6.2900    5.3718 C.ar      1 <0>        -0.0856
     21 C15        -5.8343    5.7464    5.2827 C.ar      1 <0>        -0.1576
     22 C16        -5.6777    4.3978    5.0098 C.ar      1 <0>         0.1181
     23 F1         -4.4393    3.8639    4.9284 F         1 <0>        -0.1158
     24 C17        -7.1806    1.8204    2.0579 C.3       1 <0>        -0.0193
     25 C18        -8.6348    2.1538    2.3970 C.3       1 <0>        -0.1446
     26 C19        -8.2093    0.6967    2.1994 C.3       1 <0>        -0.1396
     27 C20         0.0668    1.1900    2.4987 C.ar      1 <0>        -0.0995
     28 C21         0.8589    0.0571    2.5077 C.ar      1 <0>        -0.0932
     29 C22         1.5935   -0.2637    3.6339 C.ar      1 <0>        -0.1203
     30 C23         1.5296    0.5440    4.7540 C.ar      1 <0>        -0.1068
     31 C24         0.7335    1.6740    4.7468 C.ar      1 <0>        -0.1180
     32 C25         0.0019    1.9969    3.6192 C.ar      1 <0>        -0.0892
     33 H1         -0.2607    1.2481   -4.6338 H         1 <0>         0.0567
     34 H2         -0.7781    2.7016   -3.7138 H         1 <0>         0.0546
     35 H3         -1.8086    1.2303   -3.7226 H         1 <0>         0.0533
     36 H4         -0.0342   -0.0198   -2.5033 H         1 <0>         0.0641
     37 H5          0.9963    1.4514   -2.4945 H         1 <0>         0.0655
     38 H6         -0.7569    2.6718   -1.2157 H         1 <0>         0.0716
     39 H7         -1.7874    1.2006   -1.2244 H         1 <0>         0.0568
     40 H8         -0.0129   -0.0496   -0.0051 H         1 <0>         0.0913
     41 H9          1.0176    1.4216    0.0037 H         1 <0>         0.0921
     42 H10        -0.1143    3.6870    1.1284 H         1 <0>         0.4708
     43 H11        -4.8771    2.7467    0.8409 H         1 <0>         0.1278
     44 H12        -4.7426    0.9578    0.9332 H         1 <0>         0.1274
     45 H13        -7.5813    1.6138    4.6613 H         1 <0>         0.0940
     46 H14        -5.8663    1.7027    5.1881 H         1 <0>         0.0962
     47 H15        -8.9262    3.5198    4.7573 H         1 <0>         0.1349
     48 H16        -9.2028    5.9152    5.2521 H         1 <0>         0.1311
     49 H17        -7.2240    7.3408    5.5891 H         1 <0>         0.1327
     50 H18        -4.9664    6.3720    5.4303 H         1 <0>         0.1339
     51 H19        -6.4500    2.1367    1.2988 H         1 <0>         0.1358
     52 H20        -8.6754    2.6751    3.3648 H         1 <0>         0.1164
     53 H21        -9.0547    2.8018    1.6136 H         1 <0>         0.1133
     54 H22        -8.2776    0.1408    1.2527 H         1 <0>         0.1132
     55 H23        -7.8983    0.0140    3.0039 H         1 <0>         0.1071
     56 H24         0.9061   -0.5757    1.6338 H         1 <0>         0.1286
     57 H25         2.2152   -1.1467    3.6396 H         1 <0>         0.1274
     58 H26         2.1015    0.2919    5.6348 H         1 <0>         0.1251
     59 H27         0.6833    2.3048    5.6220 H         1 <0>         0.1249
     60 H28        -0.6201    2.8798    3.6136 H         1 <0>         0.1229
@<TRIPOS>BOND
     1    1    2 1
     2    1   33 1
     3    1   34 1
     4    1   35 1
     5    2    3 1
     6    2   36 1
     7    2   37 1
     8    3    4 1
     9    3   38 1
    10    3   39 1
    11    4    5 1
    12    4   40 1
    13    4   41 1
    14    5   11 1
    15    5    6 1
    16    5   27 1
    17    6    7 2
    18    6    8 am
    19    8    9 am
    20    8   12 1
    21    9   10 2
    22    9   11 am
    23   11   42 1
    24   12   13 1
    25   12   43 1
    26   12   44 1
    27   13   14 2
    28   13   15 am
    29   15   16 1
    30   15   24 1
    31   16   17 1
    32   16   45 1
    33   16   46 1
    34   17   22 ar
    35   17   18 ar
    36   18   19 ar
    37   18   47 1
    38   19   20 ar
    39   19   48 1
    40   20   21 ar
    41   20   49 1
    42   21   22 ar
    43   21   50 1
    44   22   23 1
    45   24   26 1
    46   24   25 1
    47   24   51 1
    48   25   26 1
    49   25   52 1
    50   25   53 1
    51   26   54 1
    52   26   55 1
    53   27   32 ar
    54   27   28 ar
    55   28   29 ar
    56   28   56 1
    57   29   30 ar
    58   29   57 1
    59   30   31 ar
    60   30   58 1
    61   31   32 ar
    62   31   59 1
    63   32   60 1
@<TRIPOS>MOLECULE
ZINC40199420
   66    68     0     0     0
SMALL
USER_CHARGES

@<TRIPOS>ATOM
      1 C1          0.6550   -2.2397    2.6448 C.3       1 <0>        -0.1477
      2 C2          0.1270   -0.8212    2.4214 C.3       1 <0>        -0.1460
      3 C3          0.6956   -0.2654    1.1142 C.3       1 <0>         0.1512
      4 H1          0.4437   -0.9373    0.2937 H         1 <0>         0.0881
      5 C4          0.0965    1.1163    0.8442 C.3       1 <0>        -0.1709
      6 N1          2.1522   -0.1532    1.2239 N.am      1 <0>        -0.5941
      7 C5          3.0146   -0.8472    0.2644 C.3       1 <0>         0.1267
      8 H2          4.0592   -0.6596    0.5128 H         1 <0>         0.0885
      9 C6          2.7382   -2.3508    0.3248 C.3       1 <0>        -0.1678
     10 C7          2.7255   -0.3318   -1.1469 C.3       1 <0>        -0.1354
     11 C8          3.1311    1.1402   -1.2453 C.3       1 <0>        -0.1572
     12 C9          2.6987    0.5885    2.2076 C.2       1 <0>         0.4984
     13 O1          1.9847    1.1630    3.0020 O.2       1 <0>        -0.5074
     14 C10         4.1970    0.7039    2.3205 C.3       1 <0>         0.0873
     15 N2          4.5365    1.5579    3.4614 N.pl3     1 <0>        -0.4707
     16 C11         4.7014    2.9283    3.4372 C.ar      1 <0>         0.0616
     17 C12         4.6178    3.8948    2.4441 C.ar      1 <0>        -0.1103
     18 C13         4.8460    5.2177    2.7577 C.ar      1 <0>        -0.0981
     19 C14         5.1586    5.5883    4.0580 C.ar      1 <0>        -0.1279
     20 C15         5.2456    4.6511    5.0480 C.ar      1 <0>        -0.0613
     21 C16         5.0175    3.3042    4.7536 C.ar      1 <0>         0.0495
     22 N3          5.0290    2.1682    5.4973 N.2       1 <0>        -0.4789
     23 C17         4.7419    1.1482    4.7422 C.2       1 <0>         0.2955
     24 C18         4.6533   -0.2794    5.2167 C.3       1 <0>        -0.0543
     25 C19         6.0262   -0.9436    5.0945 C.3       1 <0>         0.1265
     26 N4          5.9402   -2.3314    5.5557 N.am      1 <0>        -0.7276
     27 C20         7.0357   -3.1162    5.5390 C.2       1 <0>         0.5611
     28 O2          8.0951   -2.6726    5.1413 O.2       1 <0>        -0.5304
     29 C21         6.9488   -4.5168    6.0045 C.ar      1 <0>        -0.1378
     30 C22         5.7325   -5.0310    6.4565 C.ar      1 <0>        -0.0869
     31 C23         5.6581   -6.3389    6.8891 C.ar      1 <0>        -0.1270
     32 C24         6.7860   -7.1403    6.8760 C.ar      1 <0>        -0.0919
     33 C25         7.9949   -6.6366    6.4297 C.ar      1 <0>        -0.1264
     34 C26         8.0815   -5.3323    5.9885 C.ar      1 <0>        -0.0589
     35 H3          1.7348   -2.2069    2.7898 H         1 <0>         0.0507
     36 H4          0.1825   -2.6682    3.5288 H         1 <0>         0.0529
     37 H5          0.4237   -2.8547    1.7751 H         1 <0>         0.0527
     38 H6         -0.9613   -0.8434    2.3638 H         1 <0>         0.0702
     39 H7          0.4340   -0.1843    3.2510 H         1 <0>         0.0881
     40 H8          0.4635    1.4910   -0.1114 H         1 <0>         0.0558
     41 H9         -0.9904    1.0411    0.8117 H         1 <0>         0.0649
     42 H10         0.3897    1.8012    1.6398 H         1 <0>         0.0745
     43 H11         1.6869   -2.5361    0.1044 H         1 <0>         0.0660
     44 H12         3.3593   -2.8642   -0.4093 H         1 <0>         0.0714
     45 H13         2.9715   -2.7234    1.3222 H         1 <0>         0.0636
     46 H14         3.2953   -0.9148   -1.8704 H         1 <0>         0.0785
     47 H15         1.6609   -0.4302   -1.3587 H         1 <0>         0.0707
     48 H16         2.8576    1.5276   -2.2267 H         1 <0>         0.0600
     49 H17         2.6162    1.7114   -0.4728 H         1 <0>         0.0558
     50 H18         4.2085    1.2303   -1.1064 H         1 <0>         0.0534
     51 H19         4.6277   -0.2866    2.4672 H         1 <0>         0.1191
     52 H20         4.5975    1.1425    1.4065 H         1 <0>         0.1192
     53 H21         4.3755    3.6116    1.4304 H         1 <0>         0.1170
     54 H22         4.7813    5.9707    1.9862 H         1 <0>         0.1300
     55 H23         5.3353    6.6283    4.2896 H         1 <0>         0.1303
     56 H24         5.4903    4.9505    6.0564 H         1 <0>         0.1300
     57 H25         4.3328   -0.2968    6.2584 H         1 <0>         0.1117
     58 H26         3.9318   -0.8214    4.6054 H         1 <0>         0.0875
     59 H27         6.3468   -0.9261    4.0528 H         1 <0>         0.0694
     60 H28         6.7478   -0.4016    5.7058 H         1 <0>         0.0838
     61 H29         5.0947   -2.6854    5.8732 H         1 <0>         0.4016
     62 H30         4.8516   -4.4063    6.4678 H         1 <0>         0.1250
     63 H31         4.7176   -6.7381    7.2390 H         1 <0>         0.1301
     64 H32         6.7225   -8.1634    7.2160 H         1 <0>         0.1288
     65 H33         8.8716   -7.2672    6.4223 H         1 <0>         0.1315
     66 H34         9.0246   -4.9417    5.6358 H         1 <0>         0.1368
@<TRIPOS>BOND
     1    1    2 1
     2    1   35 1
     3    1   36 1
     4    1   37 1
     5    2    3 1
     6    2   38 1
     7    2   39 1
     8    3    4 1
     9    3    5 1
    10    3    6 1
    11    5   40 1
    12    5   41 1
    13    5   42 1
    14    6    7 1
    15    6   12 am
    16    7    8 1
    17    7    9 1
    18    7   10 1
    19    9   43 1
    20    9   44 1
    21    9   45 1
    22   10   11 1
    23   10   46 1
    24   10   47 1
    25   11   48 1
    26   11   49 1
    27   11   50 1
    28   12   13 2
    29   12   14 1
    30   14   15 1
    31   14   51 1
    32   14   52 1
    33   15   23 1
    34   15   16 1
    35   16   21 ar
    36   16   17 ar
    37   17   18 ar
    38   17   53 1
    39   18   19 ar
    40   18   54 1
    41   19   20 ar
    42   19   55 1
    43   20   21 ar
    44   20   56 1
    45   21   22 1
    46   22   23 2
    47   23   24 1
    48   24   25 1
    49   24   57 1
    50   24   58 1
    51   25   26 1
    52   25   59 1
    53   25   60 1
    54   26   27 am
    55   26   61 1
    56   27   28 2
    57   27   29 1
    58   29   34 ar
    59   29   30 ar
    60   30   31 ar
    61   30   62 1
    62   31   32 ar
    63   31   63 1
    64   32   33 ar
    65   32   64 1
    66   33   34 ar
    67   33   65 1
    68   34   66 1
@<TRIPOS>MOLECULE
ZINC59824915
   57    59     0     0     0
SMALL
USER_CHARGES

@<TRIPOS>ATOM
      1 C1         -0.0184    1.5028    0.0103 C.3       1 <0>        -0.0902
      2 C2          0.0021   -0.0041    0.0020 C.2       1 <0>         0.1652
      3 C3          0.0061   -0.7298   -1.1827 C.2       1 <0>        -0.2970
      4 S1          0.0318   -2.3981   -0.5461 S.3       1 <0>         0.1681
      5 C4          0.0348   -2.0218    1.0943 C.2       1 <0>         0.1180
      6 N1          0.0225   -0.6987    1.1088 N.2       1 <0>        -0.5216
      7 C5          0.0530   -2.9481    2.2443 C.ar      1 <0>        -0.0302
      8 C6          0.0765   -4.3281    2.0310 C.ar      1 <0>        -0.0824
      9 C7          0.0935   -5.1916    3.1057 C.ar      1 <0>        -0.1735
     10 C8          0.0878   -4.6928    4.4006 C.ar      1 <0>         0.1276
     11 C9          0.0645   -3.3171    4.6205 C.ar      1 <0>         0.0989
     12 C10         0.0527   -2.4459    3.5475 C.ar      1 <0>        -0.1194
     13 O1          0.0581   -2.8315    5.8908 O.3       1 <0>        -0.3021
     14 C11         0.0338   -1.4108    6.0421 C.3       1 <0>         0.0231
     15 O2          0.1047   -5.5480    5.4566 O.3       1 <0>        -0.2999
     16 C12         0.1278   -6.9455    5.1593 C.3       1 <0>         0.0222
     17 C13        -0.0079   -0.2575   -2.5697 C.2       1 <0>         0.6135
     18 O3         -0.0259    0.9364   -2.8058 O.2       1 <0>        -0.5178
     19 N2         -0.0007   -1.1450   -3.5839 N.am      1 <0>        -0.7251
     20 C14        -0.0147   -0.6727   -4.9707 C.3       1 <0>         0.1220
     21 C15        -0.0028   -1.8736   -5.9186 C.3       1 <0>        -0.1534
     22 C16        -0.0173   -1.3804   -7.3668 C.3       1 <0>         0.1500
     23 N3         -0.0059   -2.5303   -8.2744 N.pl3     1 <0>        -0.6765
     24 C17        -1.2688   -3.1231   -8.7216 C.3       1 <0>         0.1146
     25 C18         1.2105   -3.0621   -8.7140 C.ar      1 <0>         0.1343
     26 C19         1.8283   -4.0748   -7.9929 C.ar      1 <0>        -0.0987
     27 C20         3.0297   -4.5986   -8.4298 C.ar      1 <0>        -0.1249
     28 C21         3.6182   -4.1155   -9.5841 C.ar      1 <0>        -0.0939
     29 C22         3.0070   -3.1065  -10.3057 C.ar      1 <0>        -0.1509
     30 C23         1.8013   -2.5817   -9.8778 C.ar      1 <0>         0.0901
     31 F1          1.2012   -1.6001  -10.5859 F         1 <0>        -0.1345
     32 H1          1.0042    1.8801    0.0026 H         1 <0>         0.0833
     33 H2         -0.5455    1.8639   -0.8728 H         1 <0>         0.0968
     34 H3         -0.5286    1.8543    0.9071 H         1 <0>         0.0767
     35 H4          0.0810   -4.7189    1.0242 H         1 <0>         0.1335
     36 H5          0.1109   -6.2585    2.9394 H         1 <0>         0.1470
     37 H6          0.0387   -1.3793    3.7165 H         1 <0>         0.1509
     38 H7          0.0311   -1.1583    7.1025 H         1 <0>         0.1046
     39 H8          0.9158   -0.9798    5.5683 H         1 <0>         0.0579
     40 H9         -0.8639   -1.0105    5.5710 H         1 <0>         0.0579
     41 H10        -0.7591   -7.2091    4.5830 H         1 <0>         0.0588
     42 H11         1.0206   -7.1789    4.5792 H         1 <0>         0.0588
     43 H12         0.1395   -7.5146    6.0889 H         1 <0>         0.1048
     44 H13         0.0136   -2.0964   -3.3957 H         1 <0>         0.3989
     45 H14        -0.9140   -0.0818   -5.1442 H         1 <0>         0.0736
     46 H15         0.8658   -0.0567   -5.1536 H         1 <0>         0.0730
     47 H16         0.8965   -2.4646   -5.7450 H         1 <0>         0.0710
     48 H17        -0.8832   -2.4896   -5.7356 H         1 <0>         0.0719
     49 H18        -0.9166   -0.7895   -7.5403 H         1 <0>         0.0740
     50 H19         0.8631   -0.7644   -7.5497 H         1 <0>         0.0673
     51 H20        -1.5952   -2.6336   -9.6391 H         1 <0>         0.0379
     52 H21        -1.1245   -4.1872   -8.9090 H         1 <0>         0.0560
     53 H22        -2.0263   -2.9897   -7.9493 H         1 <0>         0.0612
     54 H23         1.3702   -4.4527   -7.0908 H         1 <0>         0.1304
     55 H24         3.5102   -5.3864   -7.8688 H         1 <0>         0.1300
     56 H25         4.5576   -4.5269   -9.9226 H         1 <0>         0.1330
     57 H26         3.4695   -2.7312  -11.2066 H         1 <0>         0.1355
@<TRIPOS>BOND
     1    1    2 1
     2    1   32 1
     3    1   33 1
     4    1   34 1
     5    2    6 1
     6    2    3 2
     7    3    4 1
     8    3   17 1
     9    4    5 1
    10    5    6 2
    11    5    7 1
    12    7   12 ar
    13    7    8 ar
    14    8    9 ar
    15    8   35 1
    16    9   10 ar
    17    9   36 1
    18   10   11 ar
    19   10   15 1
    20   11   12 ar
    21   11   13 1
    22   12   37 1
    23   13   14 1
    24   14   38 1
    25   14   39 1
    26   14   40 1
    27   15   16 1
    28   16   41 1
    29   16   42 1
    30   16   43 1
    31   17   18 2
    32   17   19 am
    33   19   20 1
    34   19   44 1
    35   20   21 1
    36   20   45 1
    37   20   46 1
    38   21   22 1
    39   21   47 1
    40   21   48 1
    41   22   23 1
    42   22   49 1
    43   22   50 1
    44   23   24 1
    45   23   25 1
    46   24   51 1
    47   24   52 1
    48   24   53 1
    49   25   30 ar
    50   25   26 ar
    51   26   27 ar
    52   26   54 1
    53   27   28 ar
    54   27   55 1
    55   28   29 ar
    56   28   56 1
    57   29   30 ar
    58   29   57 1
    59   30   31 1
@<TRIPOS>MOLECULE
ZINC32759821
   51    54     0     0     0
SMALL
USER_CHARGES
N-[(5-methyl-2-thienyl)methyl]-2-phenyl-N-[(1-phenyltetrazol-5-yl)methyl]ethanamine
@<TRIPOS>ATOM
      1 C1          1.3958   -7.5056    0.2017 C.3       1 <0>        -0.0768
      2 C2          1.0965   -6.0480   -0.0366 C.2       1 <0>        -0.1285
      3 C3          0.4676   -5.4663   -1.0870 C.2       1 <0>        -0.1634
      4 C4          0.3022   -4.0940   -1.0931 C.2       1 <0>        -0.1200
      5 C5          0.7738   -3.3705   -0.0484 C.2       1 <0>        -0.1514
      6 S1          1.4842   -4.6385    0.9882 S.3       1 <0>         0.0190
      7 C6          0.7186   -1.8814    0.1765 C.3       1 <0>         0.1383
      8 N1         -0.5708   -1.5253    0.7836 N.3       1 <0>        -0.5237
      9 C7         -0.8140   -0.0794    0.6928 C.3       1 <0>         0.0566
     10 C8         -0.9805    0.3186   -0.7751 C.3       1 <0>        -0.0793
     11 C9         -1.2300    1.8019   -0.8681 C.ar      1 <0>        -0.0825
     12 C10        -2.5234    2.2887   -0.8352 C.ar      1 <0>        -0.1140
     13 C11        -2.7519    3.6496   -0.9157 C.ar      1 <0>        -0.1164
     14 C12        -1.6876    4.5231   -1.0393 C.ar      1 <0>        -0.1216
     15 C13        -0.3946    4.0359   -1.0780 C.ar      1 <0>        -0.1172
     16 C14        -0.1657    2.6754   -0.9922 C.ar      1 <0>        -0.1156
     17 C15        -0.6412   -1.9845    2.1772 C.3       1 <0>         0.1195
     18 C16        -2.0823   -2.0456    2.6137 C.2       1 <0>         0.2655
     19 N2         -2.9152   -3.0310    2.4024 N.2       1 <0>        -0.3059
     20 N3         -4.0671   -2.7658    2.9045 N.2       1 <0>        -0.0341
     21 N4         -4.0517   -1.6051    3.4659 N.2       1 <0>        -0.0749
     22 N5         -2.7518   -1.0950    3.3010 N.pl3     1 <0>        -0.3311
     23 C17        -2.2573    0.1380    3.7512 C.ar      1 <0>         0.1229
     24 C18        -1.0071    0.2090    4.3503 C.ar      1 <0>        -0.1180
     25 C19        -0.5207    1.4253    4.7882 C.ar      1 <0>        -0.0979
     26 C20        -1.2823    2.5699    4.6399 C.ar      1 <0>        -0.1010
     27 C21        -2.5302    2.5014    4.0482 C.ar      1 <0>        -0.0967
     28 C22        -3.0196    1.2888    3.6036 C.ar      1 <0>        -0.0922
     29 H1          1.0117   -8.1011   -0.6396 H         1 <0>         0.0830
     30 H2          0.9108   -7.8319    1.1335 H         1 <0>         0.0786
     31 H3          2.4834   -7.6477    0.2852 H         1 <0>         0.0775
     32 H4          0.1008   -6.0662   -1.9068 H         1 <0>         0.1327
     33 H5         -0.1957   -3.6056   -1.9177 H         1 <0>         0.1327
     34 H6          1.5358   -1.5816    0.8491 H         1 <0>         0.0586
     35 H7          0.8267   -1.3609   -0.7865 H         1 <0>         0.1104
     36 H8         -1.7295    0.1740    1.2475 H         1 <0>         0.0747
     37 H9          0.0391    0.4638    1.1255 H         1 <0>         0.0472
     38 H10        -0.0650    0.0652   -1.3298 H         1 <0>         0.0782
     39 H11        -1.8335   -0.2246   -1.2078 H         1 <0>         0.0839
     40 H12        -3.3551    1.6060   -0.7428 H         1 <0>         0.1184
     41 H13        -3.7622    4.0302   -0.8858 H         1 <0>         0.1215
     42 H14        -1.8664    5.5861   -1.1059 H         1 <0>         0.1214
     43 H15         0.4369    4.7183   -1.1749 H         1 <0>         0.1219
     44 H16         0.8445    2.2947   -1.0224 H         1 <0>         0.1202
     45 H17        -0.1912   -2.9851    2.2567 H         1 <0>         0.1230
     46 H18        -0.0920   -1.2832    2.8226 H         1 <0>         0.0746
     47 H19        -0.4137   -0.6854    4.4704 H         1 <0>         0.1330
     48 H20         0.4536    1.4818    5.2507 H         1 <0>         0.1391
     49 H21        -0.9015    3.5193    4.9865 H         1 <0>         0.1355
     50 H22        -3.1229    3.3970    3.9340 H         1 <0>         0.1384
     51 H23        -3.9942    1.2359    3.1413 H         1 <0>         0.1358
@<TRIPOS>BOND
     1    1    2 1
     2    1   29 1
     3    1   30 1
     4    1   31 1
     5    2    6 1
     6    2    3 2
     7    3    4 1
     8    3   32 1
     9    4    5 2
    10    4   33 1
    11    5    6 1
    12    5    7 1
    13    7    8 1
    14    7   34 1
    15    7   35 1
    16    8    9 1
    17    8   17 1
    18    9   10 1
    19    9   36 1
    20    9   37 1
    21   10   11 1
    22   10   38 1
    23   10   39 1
    24   11   16 ar
    25   11   12 ar
    26   12   13 ar
    27   12   40 1
    28   13   14 ar
    29   13   41 1
    30   14   15 ar
    31   14   42 1
    32   15   16 ar
    33   15   43 1
    34   16   44 1
    35   17   18 1
    36   17   45 1
    37   17   46 1
    38   18   22 1
    39   18   19 2
    40   19   20 1
    41   20   21 2
    42   21   22 1
    43   22   23 1
    44   23   28 ar
    45   23   24 ar
    46   24   25 ar
    47   24   47 1
    48   25   26 ar
    49   25   48 1
    50   26   27 ar
    51   26   49 1
    52   27   28 ar
    53   27   50 1
    54   28   51 1
@<TRIPOS>MOLECULE
ZINC48187245
   47    49     0     0     0
SMALL
USER_CHARGES

@<TRIPOS>ATOM
      1 C1         -0.0184    1.5028    0.0103 C.3       1 <0>        -0.0712
      2 C2          0.0021   -0.0041    0.0020 C.2       1 <0>         0.1910
      3 N1          0.0082   -0.7704   -1.0518 N.2       1 <0>        -0.2847
      4 N2          0.0272   -2.0060   -0.6987 N.2       1 <0>        -0.2914
      5 C3          0.0342   -2.0955    0.6111 C.2       1 <0>         0.1592
      6 N3          0.0236   -0.8203    1.0991 N.pl3     1 <0>        -0.4552
      7 C4          0.0306   -0.4114    2.5058 C.3       1 <0>         0.1467
      8 C5         -1.3877   -0.2913    3.0011 C.ar      1 <0>        -0.1249
      9 C6         -2.0594    0.9117    2.8891 C.ar      1 <0>        -0.0998
     10 C7         -3.3603    1.0219    3.3434 C.ar      1 <0>        -0.1205
     11 C8         -3.9896   -0.0711    3.9092 C.ar      1 <0>        -0.1048
     12 C9         -3.3183   -1.2743    4.0204 C.ar      1 <0>        -0.1182
     13 C10        -2.0188   -1.3857    3.5622 C.ar      1 <0>        -0.0922
     14 S1          0.0593   -3.5801    1.5598 S.3       1 <0>        -0.0070
     15 C11         0.0732   -4.8975    0.3128 C.3       1 <0>        -0.0939
     16 C12         0.0955   -6.2593    1.0099 C.3       1 <0>        -0.1004
     17 C13         0.1071   -7.3704   -0.0418 C.3       1 <0>        -0.6047
     18 S2          0.1336   -8.9850    0.7846 S.o2      1 <0>         2.4977
     19 O1          1.3738   -9.1727    1.4525 O.2       1 <0>        -0.9312
     20 O2         -1.0952   -9.2081    1.4625 O.2       1 <0>        -0.9313
     21 C14         0.1452  -10.1638   -0.5249 C.ar      1 <0>        -0.6611
     22 C15        -1.0473  -10.6392   -1.0375 C.ar      1 <0>        -0.0248
     23 C16        -1.0383  -11.5640   -2.0649 C.ar      1 <0>        -0.1394
     24 C17         0.1634  -12.0132   -2.5799 C.ar      1 <0>        -0.0630
     25 C18         1.3559  -11.5372   -2.0678 C.ar      1 <0>        -0.1393
     26 C19         1.3468  -10.6091   -1.0434 C.ar      1 <0>        -0.0247
     27 H1          1.0042    1.8801    0.0026 H         1 <0>         0.0895
     28 H2         -0.5455    1.8639   -0.8728 H         1 <0>         0.0988
     29 H3         -0.5286    1.8543    0.9071 H         1 <0>         0.0785
     30 H4          0.5604   -1.1572    3.0984 H         1 <0>         0.1085
     31 H5          0.5317    0.5518    2.6018 H         1 <0>         0.1103
     32 H6         -1.5676    1.7656    2.4470 H         1 <0>         0.1238
     33 H7         -3.8848    1.9619    3.2565 H         1 <0>         0.1271
     34 H8         -5.0058    0.0152    4.2648 H         1 <0>         0.1265
     35 H9         -3.8099   -2.1281    4.4629 H         1 <0>         0.1285
     36 H10        -1.4956   -2.3267    3.6457 H         1 <0>         0.1282
     37 H11        -0.8205   -4.8209   -0.3065 H         1 <0>         0.1034
     38 H12         0.9593   -4.7954   -0.3137 H         1 <0>         0.1035
     39 H13         0.9892   -6.3358    1.6292 H         1 <0>         0.0952
     40 H14        -0.7906   -6.3613    1.6364 H         1 <0>         0.0949
     41 H15        -0.7865   -7.2939   -0.6611 H         1 <0>         0.1421
     42 H16         0.9932   -7.2684   -0.6683 H         1 <0>         0.1422
     43 H17        -1.9861  -10.2882   -0.6352 H         1 <0>         0.1428
     44 H18        -1.9699  -11.9359   -2.4649 H         1 <0>         0.1349
     45 H19         0.1705  -12.7363   -3.3821 H         1 <0>         0.1327
     46 H20         2.2947  -11.8884   -2.4700 H         1 <0>         0.1349
     47 H21         2.2784  -10.2344   -0.6458 H         1 <0>         0.1429
@<TRIPOS>BOND
     1    1    2 1
     2    1   27 1
     3    1   28 1
     4    1   29 1
     5    2    6 1
     6    2    3 2
     7    3    4 1
     8    4    5 2
     9    5    6 1
    10    5   14 1
    11    6    7 1
    12    7    8 1
    13    7   30 1
    14    7   31 1
    15    8   13 ar
    16    8    9 ar
    17    9   10 ar
    18    9   32 1
    19   10   11 ar
    20   10   33 1
    21   11   12 ar
    22   11   34 1
    23   12   13 ar
    24   12   35 1
    25   13   36 1
    26   14   15 1
    27   15   16 1
    28   15   37 1
    29   15   38 1
    30   16   17 1
    31   16   39 1
    32   16   40 1
    33   17   18 1
    34   17   41 1
    35   17   42 1
    36   18   19 2
    37   18   20 2
    38   18   21 1
    39   21   26 ar
    40   21   22 ar
    41   22   23 ar
    42   22   43 1
    43   23   24 ar
    44   23   44 1
    45   24   25 ar
    46   24   45 1
    47   25   26 ar
    48   25   46 1
    49   26   47 1
@<TRIPOS>MOLECULE
ZINC58712092
   43    44     0     0     0
SMALL
USER_CHARGES

@<TRIPOS>ATOM
      1 C1         -0.0184    1.5028    0.0103 C.3       1 <0>        -0.1204
      2 C2          0.0021   -0.0041    0.0020 C.ar      1 <0>        -0.0572
      3 C3          0.0057   -0.6888   -1.1973 C.ar      1 <0>        -0.0719
      4 C4          0.0244   -2.0721   -1.2058 C.ar      1 <0>        -0.0934
      5 C5          0.0391   -2.7743   -0.0132 C.ar      1 <0>        -0.0757
      6 C6          0.0355   -2.0957    1.1891 C.ar      1 <0>        -0.1287
      7 C7          0.0230   -0.7059    1.2010 C.ar      1 <0>        -0.0919
      8 S1          0.0258    0.1640    2.7333 S.3       1 <0>        -0.0080
      9 C8          0.0555   -1.1498    3.9837 C.3       1 <0>        -0.1628
     10 C9          0.0602   -0.5342    5.3592 C.2       1 <0>         0.5345
     11 O1          0.0450    0.6721    5.4837 O.2       1 <0>        -0.5033
     12 N1          0.0813   -1.3241    6.4510 N.am      1 <0>        -0.5981
     13 C10         0.0996   -2.7812    6.3006 C.3       1 <0>         0.1057
     14 C11         1.5483   -3.2689    6.2346 C.3       1 <0>         0.0390
     15 O2          2.1956   -3.0094    7.4819 O.3       1 <0>        -0.3870
     16 C12         3.5609   -3.4291    7.5265 C.3       1 <0>         0.0311
     17 C13         0.0859   -0.7256    7.7882 C.3       1 <0>         0.1999
     18 C14        -1.3332   -0.5396    8.2602 C.2       1 <0>        -0.0358
     19 C15        -2.0544   -1.4363    8.9568 C.2       1 <0>        -0.1950
     20 C16        -3.3218   -0.8532    9.1862 C.2       1 <0>        -0.2193
     21 C17        -3.2993    0.3649    8.6160 C.2       1 <0>        -0.0331
     22 O3         -2.0903    0.5517    8.0616 O.3       1 <0>        -0.1645
     23 Br1         0.0294   -3.0056   -2.8503 Br        1 <0>        -0.0462
     24 H1          1.0042    1.8801    0.0026 H         1 <0>         0.0810
     25 H2         -0.5455    1.8639   -0.8728 H         1 <0>         0.0763
     26 H3         -0.5286    1.8543    0.9071 H         1 <0>         0.0765
     27 H4         -0.0064   -0.1437   -2.1297 H         1 <0>         0.1391
     28 H5          0.0530   -3.8541   -0.0231 H         1 <0>         0.1357
     29 H6          0.0470   -2.6441    2.1194 H         1 <0>         0.1285
     30 H7         -0.8272   -1.7793    3.8704 H         1 <0>         0.1183
     31 H8          0.9525   -1.7551    3.8535 H         1 <0>         0.1172
     32 H9         -0.4000   -3.2408    7.1535 H         1 <0>         0.0975
     33 H10        -0.4193   -3.0584    5.3830 H         1 <0>         0.0967
     34 H11         1.5622   -4.3402    6.0340 H         1 <0>         0.0660
     35 H12         2.0727   -2.7430    5.4367 H         1 <0>         0.0524
     36 H13         3.9804   -3.1971    8.5054 H         1 <0>         0.0890
     37 H14         3.6166   -4.5037    7.3527 H         1 <0>         0.0433
     38 H15         4.1270   -2.9065    6.7555 H         1 <0>         0.0422
     39 H16         0.6152   -1.3824    8.4784 H         1 <0>         0.1227
     40 H17         0.5863    0.2421    7.7514 H         1 <0>         0.1013
     41 H18        -1.7281   -2.4142    9.2787 H         1 <0>         0.1477
     42 H19        -4.1493   -1.3001    9.7170 H         1 <0>         0.1485
     43 H20        -4.1138    1.0740    8.6087 H         1 <0>         0.2022
@<TRIPOS>BOND
     1    1    2 1
     2    1   24 1
     3    1   25 1
     4    1   26 1
     5    2    7 ar
     6    2    3 ar
     7    3    4 ar
     8    3   27 1
     9    4    5 ar
    10    4   23 1
    11    5    6 ar
    12    5   28 1
    13    6    7 ar
    14    6   29 1
    15    7    8 1
    16    8    9 1
    17    9   10 1
    18    9   30 1
    19    9   31 1
    20   10   11 2
    21   10   12 am
    22   12   13 1
    23   12   17 1
    24   13   14 1
    25   13   32 1
    26   13   33 1
    27   14   15 1
    28   14   34 1
    29   14   35 1
    30   15   16 1
    31   16   36 1
    32   16   37 1
    33   16   38 1
    34   17   18 1
    35   17   39 1
    36   17   40 1
    37   18   22 1
    38   18   19 2
    39   19   20 1
    40   19   41 1
    41   20   21 2
    42   20   42 1
    43   21   22 1
    44   21   43 1
@<TRIPOS>MOLECULE
ZINC64901311
   49    51     0     0     0
SMALL
USER_CHARGES

@<TRIPOS>ATOM
      1 C1         -0.0178    1.4608    0.0101 C.3       1 <0>         0.0596
      2 N1          0.0021   -0.0041    0.0020 N.pl3     1 <0>        -0.4425
      3 C2          0.0086   -0.8102   -1.1042 C.2       1 <0>        -0.0262
      4 C3          0.0285   -2.0813   -0.6599 C.2       1 <0>        -0.0238
      5 N2          0.0339   -2.0521    0.6810 N.2       1 <0>        -0.4337
      6 C4          0.0233   -0.8111    1.0845 C.2       1 <0>         0.1640
      7 C5          0.0299   -0.3544    2.5206 C.3       1 <0>         0.1469
      8 C6         -1.3549   -0.5753    3.1324 C.3       1 <0>         0.4456
      9 F1         -1.6777   -1.9354    3.0771 F         1 <0>        -0.1557
     10 F2         -1.3488   -0.1513    4.4656 F         1 <0>        -0.1692
     11 F3         -2.3046    0.1589    2.4139 F         1 <0>        -0.1717
     12 O1          1.0000   -1.1043    3.2545 O.3       1 <0>        -0.3071
     13 C7          1.5858   -0.4901    4.2944 C.2       1 <0>         0.4620
     14 O2          1.2849    0.6466    4.5723 O.2       1 <0>        -0.4904
     15 C8          2.6188   -1.2183    5.1152 C.3       1 <0>        -0.1012
     16 C9          3.1245   -0.3001    6.2297 C.3       1 <0>        -0.1572
     17 C10         4.1574   -1.0283    7.0506 C.2       1 <0>         0.4020
     18 O3          4.4594   -2.1690    6.7717 O.2       1 <0>        -0.4492
     19 C11         4.7997   -0.3549    8.1906 C.ar      1 <0>        -0.1752
     20 C12         4.4520    0.9590    8.5214 C.ar      1 <0>        -0.0746
     21 C13         5.0637    1.5754    9.5882 C.ar      1 <0>        -0.1332
     22 C14         6.0225    0.9072   10.3430 C.ar      1 <0>        -0.0412
     23 C15         6.3668   -0.3898   10.0261 C.ar      1 <0>        -0.0892
     24 C16         5.7570   -1.0233    8.9549 C.ar      1 <0>        -0.0570
     25 C17         7.3850   -1.1735   10.8129 C.3       1 <0>        -0.0829
     26 C18         8.2498   -0.2379   11.6550 C.3       1 <0>        -0.1214
     27 C19         7.3245    0.6832   12.4589 C.3       1 <0>        -0.1220
     28 C20         6.6517    1.6539   11.4908 C.3       1 <0>        -0.0877
     29 H1          1.0048    1.8381    0.0023 H         1 <0>         0.0859
     30 H2         -0.5450    1.8219   -0.8730 H         1 <0>         0.0990
     31 H3         -0.5280    1.8123    0.9069 H         1 <0>         0.0880
     32 H4         -0.0008   -0.4887   -2.1352 H         1 <0>         0.1870
     33 H5          0.0383   -2.9687   -1.2754 H         1 <0>         0.1814
     34 H6          0.2813    0.7053    2.5637 H         1 <0>         0.1357
     35 H7          2.1714   -2.1101    5.5541 H         1 <0>         0.1215
     36 H8          3.4530   -1.5073    4.4760 H         1 <0>         0.1202
     37 H9          3.5718    0.5917    5.7908 H         1 <0>         0.1122
     38 H10         2.2902   -0.0111    6.8689 H         1 <0>         0.1135
     39 H11         3.7081    1.4863    7.9426 H         1 <0>         0.1337
     40 H12         4.7967    2.5905    9.8427 H         1 <0>         0.1289
     41 H13         6.0273   -2.0392    8.7075 H         1 <0>         0.1334
     42 H14         6.8698   -1.8746   11.4694 H         1 <0>         0.0787
     43 H15         8.0218   -1.7286   10.1241 H         1 <0>         0.0771
     44 H16         8.8676   -0.8229   12.3363 H         1 <0>         0.0707
     45 H17         8.8865    0.3599   11.0028 H         1 <0>         0.0665
     46 H18         6.5665    0.0882   12.9683 H         1 <0>         0.0671
     47 H19         7.9079    1.2408   13.1916 H         1 <0>         0.0707
     48 H20         7.3966    2.3484   11.1024 H         1 <0>         0.0816
     49 H21         5.8811    2.2137   12.0208 H         1 <0>         0.0793
@<TRIPOS>BOND
     1    1    2 1
     2    1   29 1
     3    1   30 1
     4    1   31 1
     5    2    6 1
     6    2    3 1
     7    3    4 2
     8    3   32 1
     9    4    5 1
    10    4   33 1
    11    5    6 2
    12    6    7 1
    13    7    8 1
    14    7   12 1
    15    7   34 1
    16    8    9 1
    17    8   10 1
    18    8   11 1
    19   12   13 1
    20   13   14 2
    21   13   15 1
    22   15   16 1
    23   15   35 1
    24   15   36 1
    25   16   17 1
    26   16   37 1
    27   16   38 1
    28   17   18 2
    29   17   19 1
    30   19   24 ar
    31   19   20 ar
    32   20   21 ar
    33   20   39 1
    34   21   22 ar
    35   21   40 1
    36   22   28 1
    37   22   23 ar
    38   23   24 ar
    39   23   25 1
    40   24   41 1
    41   25   26 1
    42   25   42 1
    43   25   43 1
    44   26   27 1
    45   26   44 1
    46   26   45 1
    47   27   28 1
    48   27   46 1
    49   27   47 1
    50   28   48 1
    51   28   49 1
@<TRIPOS>MOLECULE
ZINC67170360
   50    51     0     0     0
SMALL
USER_CHARGES

@<TRIPOS>ATOM
      1 C1         -2.9634    1.4112   -3.1732 C.3       1 <0>        -0.1522
      2 C2         -2.6183   -0.0090   -2.7206 C.3       1 <0>        -0.1209
      3 C3         -1.8437    0.0498   -1.4025 C.3       1 <0>        -0.0998
      4 H1         -2.4194    0.6123   -0.6675 H         1 <0>         0.0774
      5 C4         -0.4975    0.7397   -1.6324 C.3       1 <0>        -0.1507
      6 C5         -1.6070   -1.3709   -0.8862 C.3       1 <0>         0.1100
      7 H2         -0.9831   -1.9157   -1.5947 H         1 <0>         0.1121
      8 C6         -0.9033   -1.3097    0.4710 C.3       1 <0>        -0.1690
      9 N1         -2.8927   -2.0575   -0.7391 N.am      1 <0>        -0.5679
     10 C7         -3.8516   -1.6079    0.2731 C.3       1 <0>         0.0681
     11 C8         -4.9829   -2.5668    0.6498 C.3       1 <0>        -0.1898
     12 C9         -5.2824   -1.3214   -0.1871 C.3       1 <0>        -0.1824
     13 C10        -3.1934   -3.1028   -1.5350 C.2       1 <0>         0.5607
     14 O1         -4.2987   -3.6063   -1.4854 O.2       1 <0>        -0.5180
     15 C11        -2.1789   -3.6371   -2.4684 C.ar      1 <0>        -0.1470
     16 C12        -0.8321   -3.6594   -2.1021 C.ar      1 <0>        -0.0404
     17 C13         0.1093   -4.1596   -2.9774 C.ar      1 <0>        -0.1402
     18 C14        -0.2788   -4.6383   -4.2164 C.ar      1 <0>         0.0022
     19 C15        -1.6119   -4.6190   -4.5856 C.ar      1 <0>        -0.6655
     20 C16        -2.5643   -4.1266   -3.7172 C.ar      1 <0>         0.0323
     21 S1         -2.0953   -5.2303   -6.1659 S.o2      1 <0>         2.5069
     22 O2         -3.2995   -4.5395   -6.4690 O.2       1 <0>        -0.8993
     23 O3         -0.9439   -5.0723   -6.9835 O.2       1 <0>        -0.9008
     24 C17        -2.4358   -6.9921   -5.8999 C.3       1 <0>        -0.6976
     25 C18        -2.8690   -7.6328   -7.2201 C.3       1 <0>         0.4756
     26 F1         -1.8462   -7.4928   -8.1642 F         1 <0>        -0.1659
     27 F2         -3.1316   -8.9915   -7.0150 F         1 <0>        -0.1635
     28 F3         -4.0255   -6.9998   -7.6882 F         1 <0>        -0.1652
     29 H3         -3.5153    1.3693   -4.1122 H         1 <0>         0.0545
     30 H4         -3.5761    1.8959   -2.4130 H         1 <0>         0.0537
     31 H5         -2.0448    1.9801   -3.3167 H         1 <0>         0.0570
     32 H6         -3.5369   -0.5780   -2.5771 H         1 <0>         0.0631
     33 H7         -2.0057   -0.4938   -3.4808 H         1 <0>         0.0585
     34 H8          0.1126    0.1323   -2.3009 H         1 <0>         0.0559
     35 H9         -0.6632    1.7191   -2.0812 H         1 <0>         0.0647
     36 H10         0.0170    0.8593   -0.6790 H         1 <0>         0.0595
     37 H11        -1.5272   -0.7648    1.1795 H         1 <0>         0.0667
     38 H12        -0.7347   -2.3218    0.8388 H         1 <0>         0.0622
     39 H13         0.0533   -0.7988    0.3615 H         1 <0>         0.0773
     40 H14        -3.4413   -0.9783    1.0626 H         1 <0>         0.1311
     41 H15        -5.0136   -3.5321    0.1445 H         1 <0>         0.1350
     42 H16        -5.3169   -2.5682    1.6874 H         1 <0>         0.0915
     43 H17        -5.8135   -0.5036    0.2999 H         1 <0>         0.0967
     44 H18        -5.5102   -1.4675   -1.2430 H         1 <0>         0.0974
     45 H19        -0.5278   -3.2855   -1.1357 H         1 <0>         0.1495
     46 H20         1.1517   -4.1775   -2.6953 H         1 <0>         0.1466
     47 H21         0.4623   -5.0282   -4.8984 H         1 <0>         0.1523
     48 H22        -3.6052   -4.1160   -4.0049 H         1 <0>         0.1546
     49 H23        -1.5347   -7.4853   -5.5352 H         1 <0>         0.1812
     50 H24        -3.2327   -7.1012   -5.1644 H         1 <0>         0.1818
@<TRIPOS>BOND
     1    1    2 1
     2    1   29 1
     3    1   30 1
     4    1   31 1
     5    2    3 1
     6    2   32 1
     7    2   33 1
     8    3    4 1
     9    3    5 1
    10    3    6 1
    11    5   34 1
    12    5   35 1
    13    5   36 1
    14    6    7 1
    15    6    8 1
    16    6    9 1
    17    8   37 1
    18    8   38 1
    19    8   39 1
    20    9   10 1
    21    9   13 am
    22   10   12 1
    23   10   11 1
    24   10   40 1
    25   11   12 1
    26   11   41 1
    27   11   42 1
    28   12   43 1
    29   12   44 1
    30   13   14 2
    31   13   15 1
    32   15   20 ar
    33   15   16 ar
    34   16   17 ar
    35   16   45 1
    36   17   18 ar
    37   17   46 1
    38   18   19 ar
    39   18   47 1
    40   19   20 ar
    41   19   21 1
    42   20   48 1
    43   21   22 2
    44   21   23 2
    45   21   24 1
    46   24   25 1
    47   24   49 1
    48   24   50 1
    49   25   26 1
    50   25   27 1
    51   25   28 1
@<TRIPOS>MOLECULE
ZINC13419160
   43    46     0     0     0
SMALL
USER_CHARGES
3-[2-[(5R)-3,5-bis(2-thienyl)-4,5-dihydropyrazol-1-yl]-2-oxo-ethoxy]benzoic acid
@<TRIPOS>ATOM
      1 C1          6.4974    5.4338    5.4546 C.ar      1 <0>        -0.1025
      2 C2          6.2102    5.5103    6.8021 C.ar      1 <0>        -0.1093
      3 C3          5.1248    4.8047    7.3248 C.ar      1 <0>        -0.0761
      4 C4          4.3312    4.0282    6.4789 C.ar      1 <0>        -0.1090
      5 C5          4.6321    3.9543    5.1296 C.ar      1 <0>         0.1036
      6 C6          5.7135    4.6601    4.6190 C.ar      1 <0>        -0.2115
      7 O1          3.8653    3.1951    4.3033 O.3       1 <0>        -0.2973
      8 C7          4.2296    3.1694    2.9217 C.3       1 <0>         0.0589
      9 C8          3.2735    2.2826    2.1665 C.2       1 <0>         0.5580
     10 O2          2.3688    1.7270    2.7538 O.2       1 <0>        -0.4753
     11 N1          3.4234    2.1066    0.8387 N.am      1 <0>        -0.4652
     12 C9          2.5647    1.2717   -0.0161 C.3       1 <0>         0.2001
     13 H1          2.6018    0.2303    0.3038 H         1 <0>         0.1196
     14 C10         3.1820    1.4337   -1.4192 C.3       1 <0>        -0.1237
     15 C11         4.3516    2.3660   -1.1976 C.2       1 <0>         0.1783
     16 N2          4.4163    2.6863    0.0515 N.2       1 <0>        -0.2210
     17 C12         5.2699    2.8348   -2.2405 C.2       1 <0>        -0.1158
     18 C13         6.3583    3.6826   -2.1282 C.2       1 <0>        -0.1021
     19 C14         7.0756    3.9791   -3.2637 C.2       1 <0>        -0.1608
     20 C15         6.6973    3.4359   -4.4502 C.2       1 <0>        -0.1609
     21 S1          5.2805    2.4548   -3.9850 S.3       1 <0>         0.0946
     22 C16         1.1459    1.7795    0.0007 C.2       1 <0>        -0.1633
     23 C17        -0.0126    1.0758    0.0080 C.2       1 <0>        -0.1309
     24 C18        -1.2130    1.7610    0.0173 C.2       1 <0>        -0.1582
     25 C19        -1.1962    3.1163    0.0303 C.2       1 <0>        -0.1669
     26 S2          0.5548    3.4640    0.0154 S.3       1 <0>         0.0567
     27 C20         4.8143    4.8836    8.7670 C.2       1 <0>         0.4899
     28 O3          3.8694    4.2687    9.2194 O.co2     1 <0>        -0.6259
     29 H2          7.3371    5.9803    5.0513 H         1 <0>         0.1201
     30 H3          6.8249    6.1153    7.4521 H         1 <0>         0.1330
     31 H4          3.4876    3.4835    6.8764 H         1 <0>         0.1360
     32 H5          5.9432    4.6042    3.5652 H         1 <0>         0.1199
     33 H6          5.2429    2.7807    2.8203 H         1 <0>         0.0967
     34 H7          4.1858    4.1800    2.5156 H         1 <0>         0.0963
     35 H8          3.5266    0.4717   -1.7986 H         1 <0>         0.1159
     36 H9          2.4617    1.8802   -2.1045 H         1 <0>         0.1127
     37 H10         6.6377    4.1006   -1.1724 H         1 <0>         0.1451
     38 H11         7.9303    4.6373   -3.2128 H         1 <0>         0.1415
     39 H12         7.1433    3.5618   -5.4257 H         1 <0>         0.1913
     40 H13         0.0021   -0.0041    0.0020 H         1 <0>         0.1348
     41 H14        -2.1503    1.2245    0.0184 H         1 <0>         0.1362
     42 H15        -2.0266    3.8068    0.0414 H         1 <0>         0.1873
     43 O4          5.5791    5.6373    9.5804 O.co2     1 <0>        -0.7509
@<TRIPOS>BOND
     1    1    6 ar
     2    1    2 ar
     3    1   29 1
     4    2    3 ar
     5    2   30 1
     6    3    4 ar
     7    3   27 1
     8    4    5 ar
     9    4   31 1
    10    5    6 ar
    11    5    7 1
    12    6   32 1
    13    7    8 1
    14    8    9 1
    15    8   33 1
    16    8   34 1
    17    9   10 2
    18    9   11 am
    19   11   16 1
    20   11   12 1
    21   12   13 1
    22   12   14 1
    23   12   22 1
    24   14   15 1
    25   14   35 1
    26   14   36 1
    27   15   16 2
    28   15   17 1
    29   17   21 1
    30   17   18 2
    31   18   19 1
    32   18   37 1
    33   19   20 2
    34   19   38 1
    35   20   21 1
    36   20   39 1
    37   22   26 1
    38   22   23 2
    39   23   24 1
    40   23   40 1
    41   24   25 2
    42   24   41 1
    43   25   26 1
    44   25   42 1
    45   27   28 2
    46   27   43 1
@<TRIPOS>MOLECULE
ZINC35443123
   47    49     0     0     0
SMALL
USER_CHARGES

@<TRIPOS>ATOM
      1 C1         -0.0173    1.4248    0.0099 C.3       1 <0>         0.0328
      2 O1          0.0021   -0.0041    0.0020 O.3       1 <0>        -0.3826
      3 C2          0.6734   -0.5824    1.1231 C.3       1 <0>         0.0432
      4 C3          0.6327   -2.1077    1.0107 C.3       1 <0>         0.1366
      5 N1          1.4013   -2.5316   -0.1622 N.am      1 <0>        -0.6037
      6 C4          0.8781   -2.7006   -1.5230 C.3       1 <0>         0.2542
      7 H1          0.4855   -1.7538   -1.8939 H         1 <0>         0.0855
      8 C5          2.0468   -3.1463   -2.3707 C.2       1 <0>        -0.4799
      9 C6          3.1198   -3.2169   -1.5500 C.2       1 <0>         0.2787
     10 C7          2.7132   -2.8294   -0.1841 C.2       1 <0>         0.5083
     11 O2          3.4537   -2.7878    0.7785 O.2       1 <0>        -0.5329
     12 O3          4.3692   -3.5810   -1.9225 O.3       1 <0>        -0.6068
     13 C8          2.0224   -3.4454   -3.8076 C.2       1 <0>         0.4423
     14 O4          3.0421   -3.7975   -4.3740 O.2       1 <0>        -0.4930
     15 C9          0.7730   -3.3207   -4.5600 C.2       1 <0>        -0.1832
     16 C10         0.7506   -3.5960   -5.8822 C.2       1 <0>        -0.0810
     17 C11        -0.5049   -3.4706   -6.6383 C.ar      1 <0>        -0.0514
     18 C12        -1.6767   -3.0611   -5.9929 C.ar      1 <0>        -0.1052
     19 C13        -2.8494   -2.9462   -6.7087 C.ar      1 <0>        -0.1155
     20 C14        -2.8694   -3.2347   -8.0623 C.ar      1 <0>        -0.1248
     21 C15        -1.7145   -3.6410   -8.7082 C.ar      1 <0>        -0.1223
     22 C16        -0.5323   -3.7549   -8.0080 C.ar      1 <0>        -0.1076
     23 C17        -0.2032   -3.7502   -1.5359 C.ar      1 <0>        -0.0441
     24 C18        -0.0658   -4.8932   -0.7703 C.ar      1 <0>        -0.0834
     25 C19        -1.0565   -5.8568   -0.7815 C.ar      1 <0>        -0.0965
     26 C20        -2.1868   -5.6777   -1.5589 C.ar      1 <0>        -0.0398
     27 C21        -2.3247   -4.5329   -2.3252 C.ar      1 <0>        -0.0254
     28 C22        -1.3343   -3.5670   -2.3087 C.ar      1 <0>        -0.0999
     29 Cl1        -3.7421   -4.3069   -3.3016 Cl        1 <0>        -0.0572
     30 Cl2        -3.4313   -6.8879   -1.5738 Cl        1 <0>        -0.0624
     31 H2          1.0053    1.8021    0.0021 H         1 <0>         0.0394
     32 H3         -0.5445    1.7859   -0.8732 H         1 <0>         0.0840
     33 H4         -0.5275    1.7763    0.9067 H         1 <0>         0.0366
     34 H5          1.7103   -0.2468    1.1385 H         1 <0>         0.0547
     35 H6          0.1775   -0.2725    2.0430 H         1 <0>         0.0560
     36 H7          1.0656   -2.5499    1.9080 H         1 <0>         0.0953
     37 H8         -0.4012   -2.4369    0.9060 H         1 <0>         0.0846
     38 H9         -0.1308   -3.0086   -4.0580 H         1 <0>         0.1209
     39 H10         1.6544   -3.9081   -6.3842 H         1 <0>         0.1299
     40 H11        -1.6628   -2.8359   -4.9367 H         1 <0>         0.1224
     41 H12        -3.7549   -2.6305   -6.2118 H         1 <0>         0.1186
     42 H13        -3.7912   -3.1427   -8.6175 H         1 <0>         0.1174
     43 H14        -1.7384   -3.8646   -9.7646 H         1 <0>         0.1198
     44 H15         0.3690   -4.0672   -8.5144 H         1 <0>         0.1242
     45 H16         0.8165   -5.0334   -0.1633 H         1 <0>         0.1340
     46 H17        -0.9482   -6.7497   -0.1838 H         1 <0>         0.1387
     47 H18        -1.4430   -2.6719   -2.9031 H         1 <0>         0.1401
@<TRIPOS>BOND
     1    1    2 1
     2    1   31 1
     3    1   32 1
     4    1   33 1
     5    2    3 1
     6    3    4 1
     7    3   34 1
     8    3   35 1
     9    4    5 1
    10    4   36 1
    11    4   37 1
    12    5   10 am
    13    5    6 1
    14    6    7 1
    15    6    8 1
    16    6   23 1
    17    8    9 2
    18    8   13 1
    19    9   10 1
    20    9   12 1
    21   10   11 2
    22   13   14 2
    23   13   15 1
    24   15   16 2
    25   15   38 1
    26   16   17 1
    27   16   39 1
    28   17   22 ar
    29   17   18 ar
    30   18   19 ar
    31   18   40 1
    32   19   20 ar
    33   19   41 1
    34   20   21 ar
    35   20   42 1
    36   21   22 ar
    37   21   43 1
    38   22   44 1
    39   23   28 ar
    40   23   24 ar
    41   24   25 ar
    42   24   45 1
    43   25   26 ar
    44   25   46 1
    45   26   27 ar
    46   26   30 1
    47   27   28 ar
    48   27   29 1
    49   28   47 1
@<TRIPOS>MOLECULE
ZINC40026410
   47    49     0     0     0
SMALL
USER_CHARGES

@<TRIPOS>ATOM
      1 C1         -5.2075   -1.8026   -0.9650 C.3       1 <0>        -0.1512
      2 C2         -3.9450   -2.6311   -0.7189 C.3       1 <0>         0.0531
      3 O1         -3.4279   -3.0938   -1.9682 O.3       1 <0>        -0.3169
      4 C3         -2.3014   -3.8493   -1.9268 C.ar      1 <0>         0.1415
      5 C4         -1.7089   -4.1440   -0.7039 C.ar      1 <0>        -0.2246
      6 C5         -0.5661   -4.9101   -0.6574 C.ar      1 <0>        -0.0333
      7 C6         -0.0015   -5.3924   -1.8422 C.ar      1 <0>        -0.1700
      8 C7         -0.6009   -5.0941   -3.0698 C.ar      1 <0>        -0.0206
      9 C8         -1.7462   -4.3314   -3.1069 C.ar      1 <0>        -0.1686
     10 C9          1.2241   -6.2138   -1.7972 C.2       1 <0>         0.5083
     11 O2          1.7592   -6.4505   -0.7301 O.2       1 <0>        -0.4791
     12 C10         1.7969   -6.7447   -3.0383 C.2       1 <0>        -0.5078
     13 C11         1.8878   -8.0476   -3.3926 C.2       1 <0>         0.2714
     14 C12         2.5300   -8.1462   -4.7201 C.2       1 <0>         0.5192
     15 O3          2.7534   -9.1839   -5.3112 O.2       1 <0>        -0.5323
     16 N1          2.8308   -6.9171   -5.1771 N.am      1 <0>        -0.6105
     17 C13         2.3934   -5.9422   -4.1710 C.3       1 <0>         0.2630
     18 H1          1.6422   -5.2751   -4.5938 H         1 <0>         0.0838
     19 C14         3.5743   -5.1471   -3.6768 C.ar      1 <0>        -0.1055
     20 C15         4.7701   -5.7856   -3.3947 C.ar      1 <0>         0.1395
     21 C16         5.8543   -5.0539   -2.9408 C.ar      1 <0>        -0.1568
     22 C17         5.7426   -3.6869   -2.7694 C.ar      1 <0>        -0.0875
     23 C18         4.5491   -3.0496   -3.0510 C.ar      1 <0>        -0.1275
     24 C19         3.4661   -3.7785   -3.5103 C.ar      1 <0>        -0.0068
     25 Cl1         1.9695   -2.9760   -3.8705 Cl        1 <0>        -0.0544
     26 F1          4.8787   -7.1218   -3.5618 F         1 <0>        -0.1184
     27 C20         3.4749   -6.6064   -6.4557 C.3       1 <0>         0.1609
     28 C21         2.4212   -6.4190   -7.5166 C.2       1 <0>        -0.1596
     29 C22         2.3874   -5.3131   -8.2180 C.2       1 <0>        -0.1877
     30 O4          1.4589   -9.0939   -2.6496 O.3       1 <0>        -0.6505
     31 H2         -4.9640   -0.9480   -1.5963 H         1 <0>         0.0649
     32 H3         -5.9560   -2.4198   -1.4619 H         1 <0>         0.0654
     33 H4         -5.6019   -1.4496   -0.0121 H         1 <0>         0.0760
     34 H5         -3.1964   -2.0139   -0.2221 H         1 <0>         0.0614
     35 H6         -4.1885   -3.4856   -0.0876 H         1 <0>         0.0619
     36 H7         -2.1456   -3.7710    0.2108 H         1 <0>         0.1256
     37 H8         -0.1060   -5.1379    0.2928 H         1 <0>         0.1311
     38 H9         -0.1679   -5.4647   -3.9872 H         1 <0>         0.1376
     39 H10        -2.2121   -4.1039   -4.0544 H         1 <0>         0.1289
     40 H11         6.7871   -5.5514   -2.7202 H         1 <0>         0.1373
     41 H12         6.5884   -3.1165   -2.4150 H         1 <0>         0.1371
     42 H13         4.4627   -1.9815   -2.9165 H         1 <0>         0.1355
     43 H14         4.0572   -5.6904   -6.3561 H         1 <0>         0.0751
     44 H15         4.1341   -7.4269   -6.7393 H         1 <0>         0.0878
     45 H16         1.6939   -7.1963   -7.6986 H         1 <0>         0.1111
     46 H17         3.1147   -4.5357   -8.0360 H         1 <0>         0.0953
     47 H18         1.6322   -5.1788   -8.9783 H         1 <0>         0.0971
@<TRIPOS>BOND
     1    1    2 1
     2    1   31 1
     3    1   32 1
     4    1   33 1
     5    2    3 1
     6    2   34 1
     7    2   35 1
     8    3    4 1
     9    4    9 ar
    10    4    5 ar
    11    5    6 ar
    12    5   36 1
    13    6    7 ar
    14    6   37 1
    15    7    8 ar
    16    7   10 1
    17    8    9 ar
    18    8   38 1
    19    9   39 1
    20   10   11 2
    21   10   12 1
    22   12   17 1
    23   12   13 2
    24   13   14 1
    25   13   30 1
    26   14   15 2
    27   14   16 am
    28   16   17 1
    29   16   27 1
    30   17   18 1
    31   17   19 1
    32   19   24 ar
    33   19   20 ar
    34   20   21 ar
    35   20   26 1
    36   21   22 ar
    37   21   40 1
    38   22   23 ar
    39   22   41 1
    40   23   24 ar
    41   23   42 1
    42   24   25 1
    43   27   28 1
    44   27   43 1
    45   27   44 1
    46   28   29 2
    47   28   45 1
    48   29   46 1
    49   29   47 1
@<TRIPOS>MOLECULE
ZINC40099257
   53    56     0     0     0
SMALL
USER_CHARGES

@<TRIPOS>ATOM
      1 C1          1.9187    2.8210   -1.5517 C.3       1 <0>        -0.1487
      2 C2          1.6364    1.3746   -1.1402 C.3       1 <0>        -0.1180
      3 C3          1.7363    0.4665   -2.3674 C.3       1 <0>        -0.1386
      4 C4          1.4540   -0.9799   -1.9559 C.3       1 <0>         0.1324
      5 N1          1.6719   -1.8652   -3.1026 N.am      1 <0>        -0.6047
      6 C5          0.6568   -2.2826   -4.0770 C.3       1 <0>         0.2483
      7 H1         -0.1427   -2.8277   -3.5753 H         1 <0>         0.0712
      8 C6          1.3640   -3.1858   -5.0603 C.2       1 <0>        -0.4875
      9 C7          2.6548   -3.2602   -4.6636 C.2       1 <0>         0.2860
     10 C8          2.8393   -2.4352   -3.4525 C.2       1 <0>         0.5100
     11 O1          3.8899   -2.2941   -2.8584 O.2       1 <0>        -0.5297
     12 O2          3.6250   -3.9741   -5.2813 O.3       1 <0>        -0.6022
     13 C9          0.7654   -3.8542   -6.2220 C.2       1 <0>         0.5013
     14 O3          1.4706   -4.4731   -6.9990 O.2       1 <0>        -0.4741
     15 C10        -0.6816   -3.7769   -6.4473 C.2       1 <0>        -0.2421
     16 C11        -1.4404   -4.2354   -7.5180 C.2       1 <0>         0.1018
     17 N2         -2.7306   -4.0241   -7.4455 N.2       1 <0>        -0.5233
     18 C12        -3.2738   -3.4131   -6.4172 C.2       1 <0>         0.0139
     19 S1         -1.9618   -3.0747   -5.4189 S.3       1 <0>         0.1652
     20 C13        -4.7284   -3.0956   -6.1839 C.3       1 <0>        -0.0598
     21 C14        -0.8134   -4.9355   -8.6961 C.3       1 <0>        -0.0779
     22 C15         0.0954   -1.0786   -4.7885 C.ar      1 <0>        -0.0662
     23 C16         0.6072   -0.6932   -5.9895 C.ar      1 <0>        -0.0873
     24 C17         0.1011    0.4172   -6.6620 C.ar      1 <0>        -0.1085
     25 C18        -0.9196    1.1492   -6.1373 C.ar      1 <0>        -0.1174
     26 C19        -1.4737    0.7820   -4.8995 C.ar      1 <0>        -0.0532
     27 C20        -0.9630   -0.3513   -4.2183 C.ar      1 <0>        -0.0264
     28 C21        -1.5213   -0.7220   -2.9829 C.ar      1 <0>        -0.1039
     29 C22        -2.5457    0.0064   -2.4613 C.ar      1 <0>        -0.1214
     30 C23        -3.0522    1.1169   -3.1342 C.ar      1 <0>        -0.1228
     31 C24        -2.5279    1.5135   -4.3259 C.ar      1 <0>        -0.1056
     32 H2          2.9213    2.8896   -1.9738 H         1 <0>         0.0524
     33 H3          1.1883    3.1358   -2.2970 H         1 <0>         0.0523
     34 H4          1.8476    3.4680   -0.6774 H         1 <0>         0.0503
     35 H5          2.3668    1.0598   -0.3948 H         1 <0>         0.0603
     36 H6          0.6338    1.3061   -0.7180 H         1 <0>         0.0603
     37 H7          1.0059    0.7813   -3.1128 H         1 <0>         0.0698
     38 H8          2.7389    0.5351   -2.7896 H         1 <0>         0.0640
     39 H9          2.1243   -1.2642   -1.1448 H         1 <0>         0.0764
     40 H10         0.4205   -1.0671   -1.6207 H         1 <0>         0.0766
     41 H11        -5.1772   -3.8776   -5.5714 H         1 <0>         0.0829
     42 H12        -4.8134   -2.1380   -5.6703 H         1 <0>         0.0811
     43 H13        -5.2466   -3.0416   -7.1414 H         1 <0>         0.0851
     44 H14        -0.7834   -6.0086   -8.5071 H         1 <0>         0.0727
     45 H15        -1.4042   -4.7406   -9.5911 H         1 <0>         0.0645
     46 H16         0.2007   -4.5637   -8.8420 H         1 <0>         0.0908
     47 H17         1.4180   -1.2564   -6.4275 H         1 <0>         0.1315
     48 H18         0.5253    0.7016   -7.6137 H         1 <0>         0.1189
     49 H19        -1.3013    2.0079   -6.6696 H         1 <0>         0.1203
     50 H20        -1.1395   -1.5806   -2.4504 H         1 <0>         0.1249
     51 H21        -2.9729   -0.2806   -1.5118 H         1 <0>         0.1180
     52 H22        -3.8659    1.6775   -2.6983 H         1 <0>         0.1160
     53 H23        -2.9300    2.3765   -4.8356 H         1 <0>         0.1199
@<TRIPOS>BOND
     1    1    2 1
     2    1   32 1
     3    1   33 1
     4    1   34 1
     5    2    3 1
     6    2   35 1
     7    2   36 1
     8    3    4 1
     9    3   37 1
    10    3   38 1
    11    4    5 1
    12    4   39 1
    13    4   40 1
    14    5   10 am
    15    5    6 1
    16    6    7 1
    17    6    8 1
    18    6   22 1
    19    8    9 2
    20    8   13 1
    21    9   10 1
    22    9   12 1
    23   10   11 2
    24   13   14 2
    25   13   15 1
    26   15   19 1
    27   15   16 2
    28   16   17 1
    29   16   21 1
    30   17   18 2
    31   18   19 1
    32   18   20 1
    33   20   41 1
    34   20   42 1
    35   20   43 1
    36   21   44 1
    37   21   45 1
    38   21   46 1
    39   22   27 ar
    40   22   23 ar
    41   23   24 ar
    42   23   47 1
    43   24   25 ar
    44   24   48 1
    45   25   26 ar
    46   25   49 1
    47   26   31 ar
    48   26   27 ar
    49   27   28 ar
    50   28   29 ar
    51   28   50 1
    52   29   30 ar
    53   29   51 1
    54   30   31 ar
    55   30   52 1
    56   31   53 1
@<TRIPOS>MOLECULE
ZINC64558498
   53    56     0     0     0
SMALL
USER_CHARGES

@<TRIPOS>ATOM
      1 C1         -0.0187    1.5258    0.0104 C.3       1 <0>        -0.1437
      2 C2          0.0021   -0.0041    0.0020 C.3       1 <0>        -0.0788
      3 C3          0.7309   -0.5033    1.2229 C.ar      1 <0>        -0.0810
      4 C4          2.0970   -0.7095    1.1762 C.ar      1 <0>        -0.1149
      5 C5          2.7656   -1.1675    2.2961 C.ar      1 <0>        -0.1140
      6 C6          2.0682   -1.4187    3.4629 C.ar      1 <0>        -0.0932
      7 C7          0.7022   -1.2116    3.5099 C.ar      1 <0>        -0.0686
      8 C8          0.0343   -0.7496    2.3912 C.ar      1 <0>        -0.1026
      9 C9          2.7969   -1.9189    4.6834 C.3       1 <0>         0.2789
     10 H1          3.8588   -1.6847    4.6087 H         1 <0>         0.0806
     11 C10         2.6016   -3.4097    4.8320 C.2       1 <0>        -0.9493
     12 C11         1.9909   -3.6082    5.9999 C.2       1 <0>         0.3230
     13 C12         1.7573   -2.3162    6.6621 C.2       1 <0>         0.5150
     14 O1          1.2188   -2.1733    7.7429 O.2       1 <0>        -0.5279
     15 N1          2.2294   -1.3136    5.8951 N.am      1 <0>        -0.6050
     16 C13         2.1851    0.1163    6.2108 C.3       1 <0>         0.2195
     17 C14         0.9070    0.7094    5.6761 C.2       1 <0>        -0.1633
     18 C15        -0.2968    0.8343    6.2864 C.2       1 <0>        -0.1478
     19 C16        -1.3414    1.4189    5.5952 C.2       1 <0>        -0.1573
     20 C17        -1.1309    1.8500    4.3274 C.2       1 <0>        -0.1960
     21 S1          0.5878    1.4370    4.0774 S.3       1 <0>         0.0818
     22 O2          1.6378   -4.8213    6.5028 O.3       1 <0>        -0.6093
     23 S2          3.0884   -4.6505    3.6796 S.o2      1 <0>         2.6167
     24 O3          4.4395   -4.3769    3.3347 O.2       1 <0>        -0.9787
     25 O4          2.6793   -5.8963    4.2272 O.2       1 <0>        -0.9442
     26 C18         2.1360   -4.4060    2.2175 C.ar      1 <0>        -0.6498
     27 C19         0.9137   -5.0359    2.0753 C.ar      1 <0>        -0.0135
     28 C20         0.1665   -4.8441    0.9283 C.ar      1 <0>        -0.1483
     29 C21         0.6414   -4.0219   -0.0765 C.ar      1 <0>        -0.0434
     30 C22         1.8632   -3.3913    0.0661 C.ar      1 <0>        -0.1374
     31 C23         2.6084   -3.5797    1.2150 C.ar      1 <0>        -0.0083
     32 C24        -0.1728   -3.8136   -1.3274 C.3       1 <0>        -0.1159
     33 H2          1.0039    1.9031    0.0027 H         1 <0>         0.0551
     34 H3         -0.5459    1.8868   -0.8726 H         1 <0>         0.0508
     35 H4         -0.5289    1.8773    0.9072 H         1 <0>         0.0517
     36 H5         -1.0205   -0.3814    0.0098 H         1 <0>         0.0636
     37 H6          0.5123   -0.3556   -0.8948 H         1 <0>         0.0663
     38 H7          2.6419   -0.5132    0.2646 H         1 <0>         0.1133
     39 H8          3.8328   -1.3293    2.2593 H         1 <0>         0.1225
     40 H9          0.1573   -1.4082    4.4213 H         1 <0>         0.1101
     41 H10        -1.0323   -0.5842    2.4291 H         1 <0>         0.1068
     42 H11         2.2239    0.2511    7.2917 H         1 <0>         0.1014
     43 H12         3.0377    0.6163    5.7514 H         1 <0>         0.0915
     44 H13        -0.4379    0.4819    7.2975 H         1 <0>         0.1308
     45 H14        -2.3107    1.5302    6.0581 H         1 <0>         0.1257
     46 H15        -1.8225    2.3241    3.6467 H         1 <0>         0.1768
     47 H16         0.5428   -5.6783    2.8603 H         1 <0>         0.1353
     48 H17        -0.7880   -5.3368    0.8169 H         1 <0>         0.1202
     49 H18         2.2343   -2.7492   -0.7191 H         1 <0>         0.1198
     50 H19         3.5613   -3.0841    1.3279 H         1 <0>         0.1350
     51 H20        -0.8356   -2.9591   -1.1914 H         1 <0>         0.0710
     52 H21         0.4948   -3.6253   -2.1682 H         1 <0>         0.0648
     53 H22        -0.7663   -4.7057   -1.5274 H         1 <0>         0.0643
@<TRIPOS>BOND
     1    1    2 1
     2    1   33 1
     3    1   34 1
     4    1   35 1
     5    2    3 1
     6    2   36 1
     7    2   37 1
     8    3    8 ar
     9    3    4 ar
    10    4    5 ar
    11    4   38 1
    12    5    6 ar
    13    5   39 1
    14    6    7 ar
    15    6    9 1
    16    7    8 ar
    17    7   40 1
    18    8   41 1
    19    9   10 1
    20    9   15 1
    21    9   11 1
    22   11   12 2
    23   11   23 1
    24   12   13 1
    25   12   22 1
    26   13   14 2
    27   13   15 am
    28   15   16 1
    29   16   17 1
    30   16   42 1
    31   16   43 1
    32   17   21 1
    33   17   18 2
    34   18   19 1
    35   18   44 1
    36   19   20 2
    37   19   45 1
    38   20   21 1
    39   20   46 1
    40   23   24 2
    41   23   25 2
    42   23   26 1
    43   26   31 ar
    44   26   27 ar
    45   27   28 ar
    46   27   47 1
    47   28   29 ar
    48   28   48 1
    49   29   30 ar
    50   29   32 1
    51   30   31 ar
    52   30   49 1
    53   31   50 1
    54   32   51 1
    55   32   52 1
    56   32   53 1
@<TRIPOS>MOLECULE
ZINC13498203
   62    65     0     0     0
SMALL
USER_CHARGES
(2R)-N-cyclopentyl-2-[(2,4-dimethylphenyl)-[2-(2-thienyl)acetyl]amino]-2-(2-fluorophenyl)acetamide
@<TRIPOS>ATOM
      1 C1          1.4968    0.3509   -1.0695 C.3       1 <0>        -0.1193
      2 C2          0.3534    1.3177   -1.2399 C.ar      1 <0>        -0.0679
      3 C3         -0.9411    0.8431   -1.3487 C.ar      1 <0>        -0.1172
      4 C4         -1.9915    1.7267   -1.4996 C.ar      1 <0>        -0.1006
      5 C5         -1.7459    3.0927   -1.5522 C.ar      1 <0>         0.1069
      6 C6         -0.4452    3.5660   -1.4423 C.ar      1 <0>        -0.0676
      7 C7          0.6007    2.6772   -1.2866 C.ar      1 <0>        -0.1132
      8 C8         -0.1748    5.0477   -1.4931 C.3       1 <0>        -0.1315
      9 N1         -2.8076    3.9904   -1.7100 N.am      1 <0>        -0.5570
     10 C9         -3.3078    4.3050   -3.0506 C.3       1 <0>         0.1815
     11 H1         -2.8235    3.6564   -3.7805 H         1 <0>         0.1213
     12 C10        -3.0016    5.7442   -3.3761 C.ar      1 <0>        -0.1322
     13 C11        -2.6821    6.6291   -2.3636 C.ar      1 <0>        -0.0601
     14 C12        -2.4007    7.9491   -2.6619 C.ar      1 <0>        -0.1287
     15 C13        -2.4381    8.3858   -3.9733 C.ar      1 <0>        -0.0827
     16 C14        -2.7577    7.5030   -4.9871 C.ar      1 <0>        -0.1511
     17 C15        -3.0347    6.1791   -4.6900 C.ar      1 <0>         0.1022
     18 F1         -3.3414    5.3137   -5.6810 F         1 <0>        -0.1372
     19 C16        -4.7982    4.0861   -3.0948 C.2       1 <0>         0.5145
     20 O1         -5.4012    3.8115   -2.0790 O.2       1 <0>        -0.5036
     21 N2         -5.4610    4.1953   -4.2632 N.am      1 <0>        -0.7249
     22 C17        -6.9098    3.9825   -4.3062 C.3       1 <0>         0.1423
     23 C18        -7.2180    2.4864   -4.5214 C.3       1 <0>        -0.1337
     24 C19        -8.4593    2.4836   -5.4478 C.3       1 <0>        -0.1244
     25 C20        -8.1737    3.6670   -6.4054 C.3       1 <0>        -0.1239
     26 C21        -7.5175    4.7332   -5.5041 C.3       1 <0>        -0.1320
     27 C22        -3.3701    4.5657   -0.6287 C.2       1 <0>         0.5297
     28 O2         -4.2377    5.4015   -0.7688 O.2       1 <0>        -0.4804
     29 C23        -2.9209    4.1704    0.7544 C.3       1 <0>        -0.0496
     30 C24        -3.7003    4.9541    1.7788 C.2       1 <0>        -0.1285
     31 C25        -4.8767    4.6441    2.3765 C.2       1 <0>        -0.1385
     32 C26        -5.4156    5.5267    3.2938 C.2       1 <0>        -0.1535
     33 C27        -4.7516    6.6761    3.5684 C.2       1 <0>        -0.1719
     34 S1         -3.3178    6.5352    2.5142 S.3       1 <0>         0.0390
     35 H2          1.6664    0.1722   -0.0077 H         1 <0>         0.0748
     36 H3          1.2531   -0.5904   -1.5619 H         1 <0>         0.0692
     37 H4          2.3980    0.7717   -1.5155 H         1 <0>         0.0690
     38 H5         -1.1310   -0.2194   -1.3118 H         1 <0>         0.1288
     39 H6         -3.0026    1.3558   -1.5801 H         1 <0>         0.1281
     40 H7          1.6127    3.0447   -1.2010 H         1 <0>         0.1294
     41 H8         -0.3250    5.4786   -0.5033 H         1 <0>         0.0710
     42 H9          0.8536    5.2186   -1.8115 H         1 <0>         0.0723
     43 H10        -0.8573    5.5175   -2.2013 H         1 <0>         0.0790
     44 H11        -2.6526    6.2892   -1.3389 H         1 <0>         0.1435
     45 H12        -2.1511    8.6399   -1.8701 H         1 <0>         0.1322
     46 H13        -2.2177    9.4173   -4.2052 H         1 <0>         0.1355
     47 H14        -2.7872    7.8444   -6.0113 H         1 <0>         0.1393
     48 H15        -4.9787    4.4149   -5.0757 H         1 <0>         0.3995
     49 H16        -7.3654    4.3287   -3.3785 H         1 <0>         0.0914
     50 H17        -6.3781    1.9899   -5.0075 H         1 <0>         0.0689
     51 H18        -7.4496    2.0042   -3.5717 H         1 <0>         0.0702
     52 H19        -9.3693    2.6614   -4.8747 H         1 <0>         0.0698
     53 H20        -8.5266    1.5467   -6.0008 H         1 <0>         0.0695
     54 H21        -9.1029    4.0464   -6.8307 H         1 <0>         0.0694
     55 H22        -7.4882    3.3613   -7.1958 H         1 <0>         0.0672
     56 H23        -8.2687    5.4431   -5.1578 H         1 <0>         0.0753
     57 H24        -6.7345    5.2566   -6.0530 H         1 <0>         0.0699
     58 H25        -1.8577    4.3834    0.8659 H         1 <0>         0.1061
     59 H26        -3.0954    3.1047    0.9024 H         1 <0>         0.1159
     60 H27        -5.3856    3.7215    2.1394 H         1 <0>         0.1304
     61 H28        -6.3518    5.3040    3.7840 H         1 <0>         0.1332
     62 H29        -5.0205    7.4710    4.2483 H         1 <0>         0.1852
@<TRIPOS>BOND
     1    1    2 1
     2    1   35 1
     3    1   36 1
     4    1   37 1
     5    2    7 ar
     6    2    3 ar
     7    3    4 ar
     8    3   38 1
     9    4    5 ar
    10    4   39 1
    11    5    6 ar
    12    5    9 1
    13    6    7 ar
    14    6    8 1
    15    7   40 1
    16    8   41 1
    17    8   42 1
    18    8   43 1
    19    9   10 1
    20    9   27 am
    21   10   11 1
    22   10   12 1
    23   10   19 1
    24   12   17 ar
    25   12   13 ar
    26   13   14 ar
    27   13   44 1
    28   14   15 ar
    29   14   45 1
    30   15   16 ar
    31   15   46 1
    32   16   17 ar
    33   16   47 1
    34   17   18 1
    35   19   20 2
    36   19   21 am
    37   21   22 1
    38   21   48 1
    39   22   26 1
    40   22   23 1
    41   22   49 1
    42   23   24 1
    43   23   50 1
    44   23   51 1
    45   24   25 1
    46   24   52 1
    47   24   53 1
    48   25   26 1
    49   25   54 1
    50   25   55 1
    51   26   56 1
    52   26   57 1
    53   27   28 2
    54   27   29 1
    55   29   30 1
    56   29   58 1
    57   29   59 1
    58   30   34 1
    59   30   31 2
    60   31   32 1
    61   31   60 1
    62   32   33 2
    63   32   61 1
    64   33   34 1
    65   33   62 1
@<TRIPOS>MOLECULE
ZINC20568078
   34    35     0     0     0
SMALL
USER_CHARGES
5-bromo-N-[2-[(2,6-dichlorophenyl)methylsulfanyl]ethyl]thiophene-2-sulfonamide
@<TRIPOS>ATOM
      1 C1          6.7787    4.4072   -9.0071 C.ar      1 <0>        -0.0870
      2 C2          7.7293    4.2092   -8.0235 C.ar      1 <0>        -0.1054
      3 C3          7.5949    3.1592   -7.1325 C.ar      1 <0>        -0.0100
      4 C4          6.5089    2.3076   -7.2262 C.ar      1 <0>        -0.0616
      5 C5          5.5606    2.5032   -8.2141 C.ar      1 <0>        -0.0100
      6 C6          5.6935    3.5563   -9.1016 C.ar      1 <0>        -0.1059
      7 Cl1         4.2011    1.4306   -8.3370 Cl        1 <0>        -0.0461
      8 C7          6.3622    1.1635   -6.2564 C.3       1 <0>        -0.0602
      9 S1          5.4192    1.7154   -4.8084 S.3       1 <0>        -0.2157
     10 C8          5.3328    0.2423   -3.7534 C.3       1 <0>        -0.1025
     11 C9          4.5528    0.5725   -2.4792 C.3       1 <0>         0.1299
     12 N1          4.4831   -0.6172   -1.6272 N.pl3     1 <0>        -1.1142
     13 S2          4.0336   -0.4737   -0.0398 S.o2      1 <0>         2.7263
     14 O1          4.8137    0.5794    0.5095 O.2       1 <0>        -0.9397
     15 O2          4.0360   -1.7868    0.5033 O.2       1 <0>        -0.9432
     16 C10         2.3598    0.0765   -0.0201 C.2       1 <0>        -0.7625
     17 C11         1.2205   -0.6573   -0.0131 C.2       1 <0>        -0.0052
     18 C12         0.0021   -0.0041    0.0020 C.2       1 <0>        -0.1477
     19 C13        -0.0163    1.3521    0.0095 C.2       1 <0>        -0.1440
     20 S3          1.7251    1.7450   -0.0050 S.3       1 <0>         0.2306
     21 Br1        -1.5012    2.5229    0.0233 Br        1 <0>         0.0600
     22 Cl2         8.7893    2.9103   -5.8975 Cl        1 <0>        -0.0438
     23 H1          6.8840    5.2269   -9.7024 H         1 <0>         0.1458
     24 H2          8.5774    4.8739   -7.9506 H         1 <0>         0.1441
     25 H3          4.9510    3.7115   -9.8703 H         1 <0>         0.1438
     26 H4          5.8307    0.3340   -6.7457 H         1 <0>         0.1031
     27 H5          7.3584    0.8232   -5.9373 H         1 <0>         0.1038
     28 H6          4.8232   -0.5677   -4.2957 H         1 <0>         0.0921
     29 H7          6.3508   -0.0784   -3.4874 H         1 <0>         0.0968
     30 H8          5.0624    1.3825   -1.9369 H         1 <0>         0.0973
     31 H9          3.5348    0.8932   -2.7452 H         1 <0>         0.0733
     32 H10         4.5669   -1.6191   -2.0736 H         1 <0>         0.4463
     33 H11         1.2636   -1.7365   -0.0190 H         1 <0>         0.1571
     34 H12        -0.9208   -0.5650    0.0082 H         1 <0>         0.1541
@<TRIPOS>BOND
     1    1    6 ar
     2    1    2 ar
     3    1   23 1
     4    2    3 ar
     5    2   24 1
     6    3    4 ar
     7    3   22 1
     8    4    5 ar
     9    4    8 1
    10    5    6 ar
    11    5    7 1
    12    6   25 1
    13    8    9 1
    14    8   26 1
    15    8   27 1
    16    9   10 1
    17   10   11 1
    18   10   28 1
    19   10   29 1
    20   11   12 1
    21   11   30 1
    22   11   31 1
    23   12   13 1
    24   12   32 1
    25   13   14 2
    26   13   15 2
    27   13   16 1
    28   16   20 1
    29   16   17 2
    30   17   18 1
    31   17   33 1
    32   18   19 2
    33   18   34 1
    34   19   20 1
    35   19   21 1
@<TRIPOS>MOLECULE
ZINC01412903
   66    70     0     0     0
SMALL
USER_CHARGES

@<TRIPOS>ATOM
      1 C1          6.1216   -3.8915    6.9462 C.ar      1 <0>        -0.1212
      2 C2          5.4066   -2.7999    7.4025 C.ar      1 <0>        -0.1159
      3 C3          4.3701   -2.2870    6.6453 C.ar      1 <0>        -0.1152
      4 C4          4.0488   -2.8654    5.4315 C.ar      1 <0>        -0.0807
      5 C5          4.7643   -3.9563    4.9748 C.ar      1 <0>        -0.1137
      6 C6          5.8000   -4.4701    5.7326 C.ar      1 <0>        -0.1145
      7 C7          2.9181   -2.3068    4.6065 C.3       1 <0>        -0.0844
      8 C8          3.4591   -1.2324    3.6609 C.3       1 <0>         0.1971
      9 H1          4.2535   -1.6559    3.0464 H         1 <0>         0.0978
     10 C9          2.3463   -0.7383    2.7730 C.ar      1 <0>        -0.0968
     11 C10         1.4643    0.2192    3.2381 C.ar      1 <0>        -0.1037
     12 C11         0.4436    0.6725    2.4235 C.ar      1 <0>        -0.1192
     13 C12         0.3050    0.1687    1.1438 C.ar      1 <0>        -0.1173
     14 C13         1.1875   -0.7882    0.6784 C.ar      1 <0>        -0.1175
     15 C14         2.2108   -1.2384    1.4914 C.ar      1 <0>        -0.1033
     16 N1          3.9911   -0.1150    4.4448 N.am      1 <0>        -0.7188
     17 C15         4.9073    0.7120    3.9035 C.2       1 <0>         0.5135
     18 O1          5.3636    0.4756    2.8049 O.2       1 <0>        -0.5129
     19 C16         5.3648    1.9304    4.6632 C.3       1 <0>         0.1798
     20 C17         6.0773    1.4944    5.9451 C.3       1 <0>        -0.1142
     21 C18         6.5418    2.7315    6.7164 C.3       1 <0>        -0.1248
     22 C19         5.3299    3.5939    7.0746 C.3       1 <0>        -0.1203
     23 C20         4.6174    4.0299    5.7927 C.3       1 <0>        -0.1137
     24 C21         4.1529    2.7929    5.0214 C.3       1 <0>        -0.1216
     25 N2          6.2878    2.7065    3.8313 N.am      1 <0>        -0.5942
     26 C22         7.7209    2.9607    3.9025 C.3       1 <0>         0.1729
     27 H2          8.0170    3.5341    4.7809 H         1 <0>         0.1134
     28 C23         7.5780    3.8082    2.6445 C.3       1 <0>        -0.1741
     29 C24         6.1265    3.4386    2.7226 C.2       1 <0>         0.5326
     30 O2          5.1632    3.7047    2.0354 O.2       1 <0>        -0.4998
     31 C25         8.5603    1.7250    3.7032 C.ar      1 <0>        -0.1171
     32 C26         8.2926    0.8708    2.6497 C.ar      1 <0>        -0.0492
     33 C27         9.0619   -0.2624    2.4657 C.ar      1 <0>        -0.1537
     34 C28        10.1011   -0.5420    3.3369 C.ar      1 <0>         0.1075
     35 C29        10.3682    0.3143    4.3917 C.ar      1 <0>        -0.1596
     36 C30         9.6009    1.4496    4.5706 C.ar      1 <0>        -0.0721
     37 F1         10.8536   -1.6498    3.1582 F         1 <0>        -0.1391
     38 H3          6.9343   -4.2894    7.5357 H         1 <0>         0.1206
     39 H4          5.6576   -2.3481    8.3508 H         1 <0>         0.1210
     40 H5          3.8110   -1.4346    7.0021 H         1 <0>         0.1158
     41 H6          4.5131   -4.4084    4.0267 H         1 <0>         0.1209
     42 H7          6.3588   -5.3227    5.3760 H         1 <0>         0.1215
     43 H8          2.4632   -3.1079    4.0239 H         1 <0>         0.0921
     44 H9          2.1699   -1.8671    5.2659 H         1 <0>         0.0809
     45 H10         1.5726    0.6129    4.2379 H         1 <0>         0.1154
     46 H11        -0.2459    1.4201    2.7871 H         1 <0>         0.1208
     47 H12        -0.4929    0.5223    0.5076 H         1 <0>         0.1213
     48 H13         1.0790   -1.1821   -0.3214 H         1 <0>         0.1223
     49 H14         2.9025   -1.9832    1.1265 H         1 <0>         0.1205
     50 H15         3.6840    0.0297    5.3535 H         1 <0>         0.3961
     51 H16         5.3906    0.9170    6.5640 H         1 <0>         0.0798
     52 H17         6.9407    0.8800    5.6899 H         1 <0>         0.0771
     53 H18         7.0493    2.4209    7.6296 H         1 <0>         0.0707
     54 H19         7.2285    3.3089    6.0974 H         1 <0>         0.0723
     55 H20         4.6431    3.0165    7.6935 H         1 <0>         0.0639
     56 H21         5.6608    4.4752    7.6241 H         1 <0>         0.0669
     57 H22         3.7540    4.6444    6.0479 H         1 <0>         0.0684
     58 H23         5.3041    4.6074    5.1738 H         1 <0>         0.0648
     59 H24         3.6453    3.1035    4.1082 H         1 <0>         0.0786
     60 H25         3.4662    2.2155    5.6403 H         1 <0>         0.0766
     61 H26         7.7776    4.8685    2.7998 H         1 <0>         0.1228
     62 H27         8.0894    3.3979    1.7737 H         1 <0>         0.1199
     63 H28         7.4817    1.0889    1.9705 H         1 <0>         0.1394
     64 H29         8.8524   -0.9298    1.6429 H         1 <0>         0.1338
     65 H30        11.1784    0.0970    5.0720 H         1 <0>         0.1362
     66 H31         9.8119    2.1201    5.3906 H         1 <0>         0.1338
@<TRIPOS>BOND
     1    1    6 ar
     2    1    2 ar
     3    1   38 1
     4    2    3 ar
     5    2   39 1
     6    3    4 ar
     7    3   40 1
     8    4    5 ar
     9    4    7 1
    10    5    6 ar
    11    5   41 1
    12    6   42 1
    13    7    8 1
    14    7   43 1
    15    7   44 1
    16    8    9 1
    17    8   10 1
    18    8   16 1
    19   10   15 ar
    20   10   11 ar
    21   11   12 ar
    22   11   45 1
    23   12   13 ar
    24   12   46 1
    25   13   14 ar
    26   13   47 1
    27   14   15 ar
    28   14   48 1
    29   15   49 1
    30   16   17 am
    31   16   50 1
    32   17   18 2
    33   17   19 1
    34   19   24 1
    35   19   20 1
    36   19   25 1
    37   20   21 1
    38   20   51 1
    39   20   52 1
    40   21   22 1
    41   21   53 1
    42   21   54 1
    43   22   23 1
    44   22   55 1
    45   22   56 1
    46   23   24 1
    47   23   57 1
    48   23   58 1
    49   24   59 1
    50   24   60 1
    51   25   29 am
    52   25   26 1
    53   26   27 1
    54   26   28 1
    55   26   31 1
    56   28   29 1
    57   28   61 1
    58   28   62 1
    59   29   30 2
    60   31   36 ar
    61   31   32 ar
    62   32   33 ar
    63   32   63 1
    64   33   34 ar
    65   33   64 1
    66   34   35 ar
    67   34   37 1
    68   35   36 ar
    69   35   65 1
    70   36   66 1
@<TRIPOS>MOLECULE
ZINC40223652
   60    64     0     0     0
SMALL
USER_CHARGES

@<TRIPOS>ATOM
      1 C1          1.9420   -1.9542   -3.5981 C.ar      1 <0>        -0.1171
      2 C2          3.1331   -1.2310   -3.6278 C.ar      1 <0>        -0.1065
      3 C3          3.7130   -0.7884   -2.4789 C.ar      1 <0>        -0.1168
      4 C4          3.1040   -1.0626   -1.2422 C.ar      1 <0>        -0.0374
      5 C5          1.8924   -1.7977   -1.2121 C.ar      1 <0>        -0.0509
      6 C6          1.3239   -2.2385   -2.4195 C.ar      1 <0>        -0.1005
      7 C7          1.2833   -2.0714    0.0241 C.ar      1 <0>        -0.0978
      8 C8          1.8631   -1.6283    1.1733 C.ar      1 <0>        -0.1136
      9 C9          3.0538   -0.9053    1.1436 C.ar      1 <0>        -0.0940
     10 C10         3.6725   -0.6219   -0.0353 C.ar      1 <0>        -0.1058
     11 C11         4.9603    0.1606   -0.0459 C.3       1 <0>         0.1550
     12 N1          5.2692    0.6111    1.3134 N.pl3     1 <0>        -0.4863
     13 C12         4.7931    1.7537    1.9248 C.ar      1 <0>         0.0500
     14 C13         3.9459    2.7802    1.5299 C.ar      1 <0>        -0.1082
     15 C14         3.6629    3.8068    2.4053 C.ar      1 <0>        -0.1015
     16 C15         4.2191    3.8205    3.6767 C.ar      1 <0>        -0.1267
     17 C16         5.0551    2.8192    4.0823 C.ar      1 <0>        -0.0652
     18 C17         5.3556    1.7678    3.2123 C.ar      1 <0>         0.0473
     19 N2          6.1294    0.6570    3.3179 N.2       1 <0>        -0.4881
     20 C18         6.0737   -0.0219    2.2094 C.2       1 <0>         0.2893
     21 C19         6.7979   -1.3186    1.9538 C.3       1 <0>        -0.0465
     22 C20         8.1791   -1.0239    1.3653 C.3       1 <0>        -0.1123
     23 C21         8.9143   -2.3404    1.1058 C.3       1 <0>        -0.1157
     24 C22        10.2955   -2.0458    0.5173 C.3       1 <0>        -0.1324
     25 C23        11.0307   -3.3622    0.2578 C.3       1 <0>         0.1188
     26 N3         12.3532   -3.0801   -0.3057 N.am      1 <0>        -0.7267
     27 C24        13.1839   -4.0951   -0.6161 C.2       1 <0>         0.6052
     28 O1         12.8353   -5.2459   -0.4283 O.2       1 <0>        -0.5246
     29 C25        14.5072   -3.8128   -1.1800 C.2       1 <0>        -0.2592
     30 C26        15.4990   -4.7003   -1.5686 C.2       1 <0>        -0.0668
     31 C27        16.6465   -4.1321   -2.0676 C.2       1 <0>        -0.1842
     32 C28        16.7329   -2.7811   -2.1456 C.2       1 <0>        -0.2200
     33 S1         15.2577   -2.2392   -1.5520 S.3       1 <0>         0.2029
     34 H1          1.5006   -2.2903   -4.5248 H         1 <0>         0.1253
     35 H2          3.6031   -1.0190   -4.5767 H         1 <0>         0.1252
     36 H3          4.6365   -0.2298   -2.5172 H         1 <0>         0.1252
     37 H4          0.4011   -2.7996   -2.4120 H         1 <0>         0.1291
     38 H5          0.3599   -2.6300    0.0623 H         1 <0>         0.1299
     39 H6          1.3928   -1.8400    2.1222 H         1 <0>         0.1253
     40 H7          3.4927   -0.5651    2.0699 H         1 <0>         0.1201
     41 H8          5.7680   -0.4739   -0.4107 H         1 <0>         0.1086
     42 H9          4.8544    1.0260   -0.7002 H         1 <0>         0.1023
     43 H10         3.5110    2.7747    0.5414 H         1 <0>         0.1194
     44 H11         3.0041    4.6061    2.0995 H         1 <0>         0.1294
     45 H12         3.9890    4.6312    4.3521 H         1 <0>         0.1294
     46 H13         5.4830    2.8401    5.0737 H         1 <0>         0.1287
     47 H14         6.9110   -1.8625    2.8916 H         1 <0>         0.1033
     48 H15         6.2245   -1.9224    1.2504 H         1 <0>         0.0852
     49 H16         8.0659   -0.4800    0.4275 H         1 <0>         0.0628
     50 H17         8.7525   -0.4201    2.0686 H         1 <0>         0.0752
     51 H18         9.0274   -2.8843    2.0436 H         1 <0>         0.0730
     52 H19         8.3409   -2.9442    0.4024 H         1 <0>         0.0694
     53 H20        10.1823   -1.5019   -0.4205 H         1 <0>         0.0707
     54 H21        10.8689   -1.4419    1.2206 H         1 <0>         0.0729
     55 H22        11.1438   -3.9062    1.1956 H         1 <0>         0.0729
     56 H23        10.4573   -3.9661   -0.4456 H         1 <0>         0.0720
     57 H24        12.6310   -2.1629   -0.4554 H         1 <0>         0.4000
     58 H25        15.3777   -5.7702   -1.4842 H         1 <0>         0.1505
     59 H26        17.4683   -4.7529   -2.3927 H         1 <0>         0.1402
     60 H27        17.5592   -2.1891   -2.5105 H         1 <0>         0.1903
@<TRIPOS>BOND
     1    1    6 ar
     2    1    2 ar
     3    1   34 1
     4    2    3 ar
     5    2   35 1
     6    3    4 ar
     7    3   36 1
     8    4   10 ar
     9    4    5 ar
    10    5    6 ar
    11    5    7 ar
    12    6   37 1
    13    7    8 ar
    14    7   38 1
    15    8    9 ar
    16    8   39 1
    17    9   10 ar
    18    9   40 1
    19   10   11 1
    20   11   12 1
    21   11   41 1
    22   11   42 1
    23   12   20 1
    24   12   13 1
    25   13   18 ar
    26   13   14 ar
    27   14   15 ar
    28   14   43 1
    29   15   16 ar
    30   15   44 1
    31   16   17 ar
    32   16   45 1
    33   17   18 ar
    34   17   46 1
    35   18   19 1
    36   19   20 2
    37   20   21 1
    38   21   22 1
    39   21   47 1
    40   21   48 1
    41   22   23 1
    42   22   49 1
    43   22   50 1
    44   23   24 1
    45   23   51 1
    46   23   52 1
    47   24   25 1
    48   24   53 1
    49   24   54 1
    50   25   26 1
    51   25   55 1
    52   25   56 1
    53   26   27 am
    54   26   57 1
    55   27   28 2
    56   27   29 1
    57   29   33 1
    58   29   30 2
    59   30   31 1
    60   30   58 1
    61   31   32 2
    62   31   59 1
    63   32   33 1
    64   32   60 1
@<TRIPOS>MOLECULE
ZINC59094664
   48    50     0     0     0
SMALL
USER_CHARGES

@<TRIPOS>ATOM
      1 C1          0.8316    1.4706   -1.0891 C.ar      1 <0>        -0.0737
      2 C2          2.0686    1.9437   -1.4843 C.ar      1 <0>        -0.1158
      3 C3          3.1457    1.0792   -1.5663 C.ar      1 <0>        -0.0248
      4 C4          2.9837   -0.2585   -1.2526 C.ar      1 <0>        -0.1199
      5 C5          1.7461   -0.7305   -0.8575 C.ar      1 <0>        -0.0933
      6 C6          0.6703    0.1338   -0.7758 C.ar      1 <0>        -0.1137
      7 C7         -0.6787   -0.3813   -0.3446 C.3       1 <0>         0.1540
      8 N1         -1.4335   -0.8185   -1.5215 N.pl3     1 <0>        -0.5420
      9 C8         -1.3265   -2.2032   -1.9876 C.3       1 <0>         0.0876
     10 C9         -2.3960   -3.0561   -1.3022 C.3       1 <0>         0.0631
     11 H1         -3.3897   -2.6693   -1.5283 H         1 <0>         0.0746
     12 C10        -2.2779   -4.5331   -1.7553 C.3       1 <0>        -0.1513
     13 C11        -2.9276   -5.2644   -0.5490 C.3       1 <0>        -0.1547
     14 C12        -2.5056   -4.3743    0.6397 C.3       1 <0>         0.0491
     15 O1         -2.1811   -3.0789    0.1179 O.3       1 <0>        -0.3705
     16 C13        -2.2265    0.0533   -2.1756 C.2       1 <0>         0.5568
     17 S1         -2.3515    1.6715   -1.6310 S.2       1 <0>        -0.6001
     18 N2         -2.9209   -0.3489   -3.2584 N.pl3     1 <0>        -0.6390
     19 C14        -3.8306    0.5216   -3.8693 C.ar      1 <0>         0.1780
     20 C15        -4.7053    1.2707   -3.0934 C.ar      1 <0>        -0.0616
     21 C16        -5.6020    2.1289   -3.6992 C.ar      1 <0>        -0.0541
     22 C17        -5.6299    2.2432   -5.0771 C.ar      1 <0>        -0.1678
     23 C18        -4.7610    1.4988   -5.8534 C.ar      1 <0>        -0.0543
     24 C19        -3.8568    0.6425   -5.2533 C.ar      1 <0>        -0.0482
     25 Cl1        -2.7607   -0.2862   -6.2279 Cl        1 <0>        -0.0487
     26 C20        -6.6098    3.1808   -5.7341 C.3       1 <0>         0.5118
     27 F1         -6.0244    4.4436   -5.8748 F         1 <0>        -0.1712
     28 F2         -6.9564    2.6843   -6.9953 F         1 <0>        -0.1749
     29 F3         -7.7584    3.2848   -4.9422 F         1 <0>        -0.1728
     30 Cl2         4.6996    1.6726   -2.0632 Cl        1 <0>        -0.0695
     31 H2         -0.0082    2.1462   -1.0208 H         1 <0>         0.1589
     32 H3          2.1944    2.9880   -1.7295 H         1 <0>         0.1343
     33 H4          3.8240   -0.9339   -1.3168 H         1 <0>         0.1327
     34 H5          1.6195   -1.7748   -0.6130 H         1 <0>         0.1281
     35 H6         -0.5458   -1.2230    0.3351 H         1 <0>         0.1078
     36 H7         -1.2255    0.4131    0.1633 H         1 <0>         0.1239
     37 H8         -1.4728   -2.2356   -3.0672 H         1 <0>         0.0915
     38 H9         -0.3386   -2.5936   -1.7429 H         1 <0>         0.1088
     39 H10        -2.8415   -4.7093   -2.6715 H         1 <0>         0.0884
     40 H11        -1.2346   -4.8248   -1.8759 H         1 <0>         0.0858
     41 H12        -4.0127   -5.2891   -0.6491 H         1 <0>         0.0794
     42 H13        -2.5238   -6.2712   -0.4424 H         1 <0>         0.0876
     43 H14        -3.3288   -4.2900    1.3491 H         1 <0>         0.0726
     44 H15        -1.6337   -4.8046    1.1325 H         1 <0>         0.0742
     45 H16        -2.7902   -1.2418   -3.6142 H         1 <0>         0.4084
     46 H17        -4.6847    1.1821   -2.0172 H         1 <0>         0.1618
     47 H18        -6.2826    2.7114   -3.0959 H         1 <0>         0.1503
     48 H19        -4.7857    1.5897   -6.9292 H         1 <0>         0.1524
@<TRIPOS>BOND
     1    1    6 ar
     2    1    2 ar
     3    1   31 1
     4    2    3 ar
     5    2   32 1
     6    3    4 ar
     7    3   30 1
     8    4    5 ar
     9    4   33 1
    10    5    6 ar
    11    5   34 1
    12    6    7 1
    13    7    8 1
    14    7   35 1
    15    7   36 1
    16    8    9 1
    17    8   16 1
    18    9   10 1
    19    9   37 1
    20    9   38 1
    21   10   11 1
    22   10   15 1
    23   10   12 1
    24   12   13 1
    25   12   39 1
    26   12   40 1
    27   13   14 1
    28   13   41 1
    29   13   42 1
    30   14   15 1
    31   14   43 1
    32   14   44 1
    33   16   17 2
    34   16   18 1
    35   18   19 1
    36   18   45 1
    37   19   24 ar
    38   19   20 ar
    39   20   21 ar
    40   20   46 1
    41   21   22 ar
    42   21   47 1
    43   22   23 ar
    44   22   26 1
    45   23   24 ar
    46   23   48 1
    47   24   25 1
    48   26   27 1
    49   26   28 1
    50   26   29 1
@<TRIPOS>MOLECULE
ZINC03284363
   49    51     0     0     0
SMALL
USER_CHARGES
2-[[5-(2,3-dimethylphenyl)amino-1,3,4-thiadiazol-2-yl]sulfanyl]-N-(1-phenylethyl)acetamide
@<TRIPOS>ATOM
      1 C1          1.1767   -2.1529    0.2863 C.3       1 <0>        -0.1183
      2 C2          1.1993   -0.6483    0.3692 C.ar      1 <0>        -0.0587
      3 C3          0.0424    0.0439    0.6784 C.ar      1 <0>        -0.1387
      4 C4          0.0587    1.4244    0.7559 C.ar      1 <0>        -0.0885
      5 C5          1.2312    2.1168    0.5246 C.ar      1 <0>        -0.1577
      6 C6          2.3949    1.4248    0.2137 C.ar      1 <0>         0.1615
      7 C7          2.3749    0.0376    0.1367 C.ar      1 <0>        -0.1225
      8 C8          3.6349   -0.7175   -0.1997 C.3       1 <0>        -0.1172
      9 N1          3.5825    2.1221   -0.0214 N.pl3     1 <0>        -0.5989
     10 C9          3.5668    3.5090   -0.1187 C.2       1 <0>         0.3340
     11 N2          2.5383    4.3344   -0.1286 N.2       1 <0>        -0.3533
     12 N3          2.7492    5.6901   -0.2299 N.2       1 <0>        -0.2824
     13 C10         3.9794    6.1572   -0.3280 C.2       1 <0>         0.0295
     14 S1          4.9340    4.6484   -0.2717 S.3       1 <0>         0.0232
     15 S2          4.5325    7.8236   -0.4757 S.3       1 <0>         0.1325
     16 C11         3.0017    8.7968   -0.4634 C.3       1 <0>        -0.1614
     17 C12         3.3364   10.2612   -0.5851 C.2       1 <0>         0.5389
     18 O1          4.4936   10.6135   -0.6716 O.2       1 <0>        -0.5194
     19 N4          2.3497   11.1792   -0.5978 N.am      1 <0>        -0.7167
     20 C13         2.6750   12.6027   -0.7161 C.3       1 <0>         0.1853
     21 H1          3.6065   12.8075   -0.1884 H         1 <0>         0.1008
     22 C14         2.8346   12.9683   -2.1932 C.3       1 <0>        -0.1600
     23 C15         1.5647   13.4236   -0.1125 C.ar      1 <0>        -0.0959
     24 C16         0.2468   13.0588   -0.3150 C.ar      1 <0>        -0.1155
     25 C17        -0.7715   13.8094    0.2423 C.ar      1 <0>        -0.1149
     26 C18        -0.4722   14.9301    0.9941 C.ar      1 <0>        -0.1168
     27 C19         0.8455   15.2976    1.1926 C.ar      1 <0>        -0.1144
     28 C20         1.8640   14.5446    0.6389 C.ar      1 <0>        -0.1062
     29 H2          0.9392   -2.4571   -0.7330 H         1 <0>         0.0732
     30 H3          2.1543   -2.5467    0.5646 H         1 <0>         0.0711
     31 H4          0.4205   -2.5429    0.9675 H         1 <0>         0.0688
     32 H5         -0.8756   -0.4951    0.8601 H         1 <0>         0.1243
     33 H6         -0.8474    1.9620    0.9932 H         1 <0>         0.1272
     34 H7          1.2431    3.1951    0.5850 H         1 <0>         0.1646
     35 H8          3.7069   -0.8411   -1.2803 H         1 <0>         0.0742
     36 H9          4.4996   -0.1603    0.1607 H         1 <0>         0.0566
     37 H10         3.6096   -1.6974    0.2771 H         1 <0>         0.0798
     38 H11         4.4180    1.6386   -0.1166 H         1 <0>         0.4292
     39 H12         2.3736    8.4967   -1.3021 H         1 <0>         0.1294
     40 H13         2.4679    8.6226    0.4709 H         1 <0>         0.1293
     41 H14         1.4241   10.8973   -0.5285 H         1 <0>         0.4040
     42 H15         1.9031   12.7634   -2.7209 H         1 <0>         0.0606
     43 H16         3.0766   14.0274   -2.2813 H         1 <0>         0.0711
     44 H17         3.6376   12.3745   -2.6298 H         1 <0>         0.0675
     45 H18         0.0129   12.1855   -0.9058 H         1 <0>         0.1205
     46 H19        -1.8010   13.5221    0.0875 H         1 <0>         0.1248
     47 H20        -1.2679   15.5184    1.4267 H         1 <0>         0.1241
     48 H21         1.0793   16.1732    1.7800 H         1 <0>         0.1257
     49 H22         2.8935   14.8319    0.7937 H         1 <0>         0.1258
@<TRIPOS>BOND
     1    1    2 1
     2    1   29 1
     3    1   30 1
     4    1   31 1
     5    2    7 ar
     6    2    3 ar
     7    3    4 ar
     8    3   32 1
     9    4    5 ar
    10    4   33 1
    11    5    6 ar
    12    5   34 1
    13    6    7 ar
    14    6    9 1
    15    7    8 1
    16    8   35 1
    17    8   36 1
    18    8   37 1
    19    9   10 1
    20    9   38 1
    21   10   14 1
    22   10   11 2
    23   11   12 1
    24   12   13 2
    25   13   14 1
    26   13   15 1
    27   15   16 1
    28   16   17 1
    29   16   39 1
    30   16   40 1
    31   17   18 2
    32   17   19 am
    33   19   20 1
    34   19   41 1
    35   20   21 1
    36   20   22 1
    37   20   23 1
    38   22   42 1
    39   22   43 1
    40   22   44 1
    41   23   28 ar
    42   23   24 ar
    43   24   25 ar
    44   24   45 1
    45   25   26 ar
    46   25   46 1
    47   26   27 ar
    48   26   47 1
    49   27   28 ar
    50   27   48 1
    51   28   49 1
@<TRIPOS>MOLECULE
ZINC15232695
   41    43     0     0     0
SMALL
USER_CHARGES
(2R)-1-(4-chlorophenoxy)-3-[[5-[(2-fluorophenyl)amino]-1,3,4-thiadiazol-2-yl]sulfanyl]propan-2-ol
@<TRIPOS>ATOM
      1 C1         -0.0003    0.0757    0.7476 C.ar      1 <0>        -0.0944
      2 C2          1.1859   -0.6300    0.6638 C.ar      1 <0>        -0.1132
      3 C3          2.3654    0.0265    0.3636 C.ar      1 <0>        -0.1227
      4 C4          2.3619    1.3921    0.1465 C.ar      1 <0>         0.0616
      5 C5          1.1698    2.1040    0.2294 C.ar      1 <0>         0.1307
      6 C6         -0.0118    1.4400    0.5311 C.ar      1 <0>        -0.1317
      7 N1          1.1613    3.4852    0.0092 N.pl3     1 <0>        -0.5983
      8 C7         -0.0468    4.1673   -0.0810 C.2       1 <0>         0.3338
      9 N2         -1.2763    3.6907   -0.0965 N.2       1 <0>        -0.3545
     10 N3         -2.3440    4.5534   -0.1886 N.2       1 <0>        -0.2809
     11 C8         -2.1321    5.8531   -0.2723 C.2       1 <0>         0.0380
     12 S1         -0.3481    5.9229   -0.2147 S.3       1 <0>         0.0316
     13 S2         -3.2973    7.1681   -0.4055 S.3       1 <0>         0.0928
     14 C9         -4.9064    6.3306   -0.4031 C.3       1 <0>        -0.1587
     15 C10        -6.0229    7.3707   -0.5152 C.3       1 <0>         0.1284
     16 H1         -5.9060    7.9305   -1.4431 H         1 <0>         0.1249
     17 C11        -7.3800    6.6643   -0.5131 C.3       1 <0>         0.0320
     18 O1         -8.4164    7.6230   -0.7345 O.3       1 <0>        -0.2981
     19 C12        -9.6928    7.1567   -0.7621 C.ar      1 <0>         0.1344
     20 C13        -9.9417    5.8034   -0.5855 C.ar      1 <0>        -0.1990
     21 C14       -11.2401    5.3321   -0.6091 C.ar      1 <0>        -0.0687
     22 C15       -12.2910    6.2073   -0.8191 C.ar      1 <0>        -0.0728
     23 C16       -12.0443    7.5566   -1.0007 C.ar      1 <0>        -0.0689
     24 C17       -10.7478    8.0325   -0.9725 C.ar      1 <0>        -0.1369
     25 Cl1       -13.9213    5.6117   -0.8544 Cl        1 <0>        -0.0681
     26 O2         -5.9512    8.2679    0.5947 O.3       1 <0>        -0.5398
     27 F1          3.5143    2.0338   -0.1459 F         1 <0>        -0.1379
     28 H2         -0.9194   -0.4406    0.9822 H         1 <0>         0.1362
     29 H3          1.1911   -1.6967    0.8329 H         1 <0>         0.1368
     30 H4          3.2901   -0.5278    0.2990 H         1 <0>         0.1430
     31 H5         -0.9399    1.9891    0.5921 H         1 <0>         0.1738
     32 H6          1.9982    3.9672   -0.0805 H         1 <0>         0.4347
     33 H7         -4.9611    5.6462   -1.2497 H         1 <0>         0.1138
     34 H8         -5.0232    5.7707    0.5249 H         1 <0>         0.1067
     35 H9         -7.4016    5.9164   -1.3058 H         1 <0>         0.0793
     36 H10        -7.5349    6.1777    0.4498 H         1 <0>         0.0739
     37 H11        -9.1214    5.1195   -0.4256 H         1 <0>         0.1363
     38 H12       -11.4346    4.2792   -0.4676 H         1 <0>         0.1369
     39 H13       -12.8659    8.2382   -1.1642 H         1 <0>         0.1420
     40 H14       -10.5556    9.0858   -1.1139 H         1 <0>         0.1426
     41 H15        -6.0476    7.8375    1.4553 H         1 <0>         0.3805
@<TRIPOS>BOND
     1    1    6 ar
     2    1    2 ar
     3    1   28 1
     4    2    3 ar
     5    2   29 1
     6    3    4 ar
     7    3   30 1
     8    4    5 ar
     9    4   27 1
    10    5    6 ar
    11    5    7 1
    12    6   31 1
    13    7    8 1
    14    7   32 1
    15    8   12 1
    16    8    9 2
    17    9   10 1
    18   10   11 2
    19   11   12 1
    20   11   13 1
    21   13   14 1
    22   14   15 1
    23   14   33 1
    24   14   34 1
    25   15   16 1
    26   15   17 1
    27   15   26 1
    28   17   18 1
    29   17   35 1
    30   17   36 1
    31   18   19 1
    32   19   24 ar
    33   19   20 ar
    34   20   21 ar
    35   20   37 1
    36   21   22 ar
    37   21   38 1
    38   22   23 ar
    39   22   25 1
    40   23   24 ar
    41   23   39 1
    42   24   40 1
    43   26   41 1
@<TRIPOS>MOLECULE
ZINC36584311
   61    62     0     0     0
SMALL
USER_CHARGES

@<TRIPOS>ATOM
      1 C1          7.4071   -4.5226   -3.4716 C.3       1 <0>        -0.1527
      2 C2          6.0732   -4.6111   -2.7274 C.3       1 <0>        -0.1220
      3 C3          6.0585   -5.8678   -1.8548 C.3       1 <0>        -0.1314
      4 C4          4.7246   -5.9563   -1.1106 C.3       1 <0>         0.1201
      5 N1          4.7105   -7.1596   -0.2750 N.am      1 <0>        -0.7335
      6 C5          3.6287   -7.4458    0.4762 C.2       1 <0>         0.5084
      7 O1          2.6669   -6.7072    0.4604 O.2       1 <0>        -0.5035
      8 C6          3.6142   -8.6835    1.3357 C.3       1 <0>         0.1709
      9 H1          4.4858   -8.6816    1.9902 H         1 <0>         0.1290
     10 C7          3.6494   -9.9065    0.4558 C.ar      1 <0>        -0.0999
     11 C8          2.5809  -10.7835    0.4482 C.ar      1 <0>        -0.0957
     12 C9          2.6131  -11.9053   -0.3588 C.ar      1 <0>        -0.1171
     13 C10         3.7137  -12.1499   -1.1587 C.ar      1 <0>        -0.0775
     14 C11         4.7819  -11.2725   -1.1518 C.ar      1 <0>        -0.1169
     15 C12         4.7478  -10.1484   -0.3479 C.ar      1 <0>        -0.1061
     16 C13         3.7493  -13.3734   -2.0378 C.3       1 <0>        -0.1172
     17 N2          2.3944   -8.7005    2.1469 N.am      1 <0>        -0.5995
     18 C14         1.1983   -8.9063    1.5610 C.2       1 <0>         0.5720
     19 O2          1.0617   -8.7030    0.3700 O.2       1 <0>        -0.4783
     20 C15         0.0547   -9.3784    2.3647 C.ar      1 <0>        -0.1606
     21 C16        -0.3627   -8.6556    3.4850 C.ar      1 <0>        -0.0568
     22 C17        -1.4318   -9.1016    4.2312 C.ar      1 <0>        -0.1555
     23 C18        -2.0957  -10.2645    3.8757 C.ar      1 <0>        -0.0778
     24 C19        -1.6937  -10.9884    2.7710 C.ar      1 <0>        -0.1566
     25 C20        -0.6228  -10.5513    2.0054 C.ar      1 <0>         0.1407
     26 O3         -0.2300  -11.2588    0.9166 O.3       1 <0>        -0.4813
     27 C21         2.4749   -8.4937    3.5950 C.3       1 <0>         0.1637
     28 C22         3.9068   -8.7516    4.0682 C.3       1 <0>        -0.1587
     29 C23         2.0796   -7.0535    3.9272 C.3       1 <0>        -0.1759
     30 C24         1.5222   -9.4600    4.3018 C.3       1 <0>        -0.2015
     31 H2          7.5310   -5.4037   -4.1013 H         1 <0>         0.0546
     32 H3          7.4176   -3.6273   -4.0933 H         1 <0>         0.0565
     33 H4          8.2230   -4.4738   -2.7505 H         1 <0>         0.0544
     34 H5          5.9493   -3.7301   -2.0977 H         1 <0>         0.0651
     35 H6          5.2573   -4.6600   -3.4486 H         1 <0>         0.0655
     36 H7          6.1824   -6.7489   -2.4844 H         1 <0>         0.0691
     37 H8          6.8744   -5.8189   -1.1336 H         1 <0>         0.0686
     38 H9          4.6007   -5.0753   -0.4809 H         1 <0>         0.0665
     39 H10         3.9088   -6.0052   -1.8317 H         1 <0>         0.0672
     40 H11         5.4798   -7.7503   -0.2624 H         1 <0>         0.3952
     41 H12         1.7210  -10.5924    1.0731 H         1 <0>         0.1310
     42 H13         1.7786  -12.5908   -0.3642 H         1 <0>         0.1229
     43 H14         5.6419  -11.4638   -1.7764 H         1 <0>         0.1255
     44 H15         5.5807   -9.4609   -0.3453 H         1 <0>         0.1180
     45 H16         3.3230  -13.1335   -3.0118 H         1 <0>         0.0724
     46 H17         4.7814  -13.7006   -2.1635 H         1 <0>         0.0675
     47 H18         3.1693  -14.1712   -1.5738 H         1 <0>         0.0674
     48 H19         0.1520   -7.7487    3.7660 H         1 <0>         0.1440
     49 H20        -1.7535   -8.5423    5.0973 H         1 <0>         0.1326
     50 H21        -2.9325  -10.6070    4.4665 H         1 <0>         0.1314
     51 H22        -2.2163  -11.8940    2.5003 H         1 <0>         0.1353
     52 H23         0.4336  -11.9362    1.1062 H         1 <0>         0.3840
     53 H24         4.5746   -8.0131    3.6247 H         1 <0>         0.0634
     54 H25         3.9499   -8.6744    5.1547 H         1 <0>         0.0799
     55 H26         4.2160   -9.7511    3.7625 H         1 <0>         0.0681
     56 H27         1.5833   -6.6051    3.0665 H         1 <0>         0.0746
     57 H28         1.4009   -7.0505    4.7802 H         1 <0>         0.0710
     58 H29         2.9728   -6.4787    4.1717 H         1 <0>         0.0677
     59 H30         2.0824  -10.0677    5.0125 H         1 <0>         0.0648
     60 H31         0.7572   -8.8931    4.8324 H         1 <0>         0.0973
     61 H32         1.0484  -10.1077    3.5642 H         1 <0>         0.0897
@<TRIPOS>BOND
     1    1    2 1
     2    1   31 1
     3    1   32 1
     4    1   33 1
     5    2    3 1
     6    2   34 1
     7    2   35 1
     8    3    4 1
     9    3   36 1
    10    3   37 1
    11    4    5 1
    12    4   38 1
    13    4   39 1
    14    5    6 am
    15    5   40 1
    16    6    7 2
    17    6    8 1
    18    8    9 1
    19    8   10 1
    20    8   17 1
    21   10   15 ar
    22   10   11 ar
    23   11   12 ar
    24   11   41 1
    25   12   13 ar
    26   12   42 1
    27   13   14 ar
    28   13   16 1
    29   14   15 ar
    30   14   43 1
    31   15   44 1
    32   16   45 1
    33   16   46 1
    34   16   47 1
    35   17   18 am
    36   17   27 1
    37   18   19 2
    38   18   20 1
    39   20   25 ar
    40   20   21 ar
    41   21   22 ar
    42   21   48 1
    43   22   23 ar
    44   22   49 1
    45   23   24 ar
    46   23   50 1
    47   24   25 ar
    48   24   51 1
    49   25   26 1
    50   26   52 1
    51   27   28 1
    52   27   29 1
    53   27   30 1
    54   28   53 1
    55   28   54 1
    56   28   55 1
    57   29   56 1
    58   29   57 1
    59   29   58 1
    60   30   59 1
    61   30   60 1
    62   30   61 1
@<TRIPOS>MOLECULE
ZINC55156476
   53    56     0     0     0
SMALL
USER_CHARGES

@<TRIPOS>ATOM
      1 C1         -0.0343    1.5393    0.0216 C.3       1 <0>        -0.1703
      2 C2         -0.0034    0.0096    0.0116 C.3       1 <0>         0.1367
      3 H1          0.5128   -0.3375   -0.8835 H         1 <0>         0.1080
      4 C3         -1.4138   -0.5213    0.0158 C.2       1 <0>         0.5121
      5 O1         -1.7914   -1.2323    0.9230 O.2       1 <0>        -0.5069
      6 N1         -2.2556   -0.2060   -0.9884 N.am      1 <0>        -0.6668
      7 C4         -3.5338   -0.7734   -1.0340 C.ar      1 <0>         0.1490
      8 C5         -4.2230   -1.0318    0.1438 C.ar      1 <0>        -0.1175
      9 C6         -5.4843   -1.5919    0.0954 C.ar      1 <0>        -0.1042
     10 C7         -6.0612   -1.8958   -1.1243 C.ar      1 <0>        -0.1289
     11 C8         -5.3776   -1.6402   -2.2986 C.ar      1 <0>        -0.0966
     12 C9         -4.1183   -1.0740   -2.2571 C.ar      1 <0>        -0.1013
     13 C10        -3.3769   -0.7890   -3.5378 C.3       1 <0>        -0.0385
     14 C11        -2.4611   -1.9429   -3.8556 C.ar      1 <0>        -0.0768
     15 C12        -1.1660   -1.9509   -3.3723 C.ar      1 <0>        -0.1146
     16 C13        -0.3260   -3.0093   -3.6638 C.ar      1 <0>        -0.1162
     17 C14        -0.7813   -4.0601   -4.4381 C.ar      1 <0>        -0.1214
     18 C15        -2.0767   -4.0526   -4.9206 C.ar      1 <0>        -0.1159
     19 C16        -2.9180   -2.9961   -4.6255 C.ar      1 <0>        -0.1125
     20 N2          0.7034   -0.4724    1.2009 N.pl3     1 <0>        -0.7219
     21 C17         2.0991   -0.5779    1.1907 C.ar      1 <0>         0.2334
     22 C18         2.8145   -0.2206    0.0562 C.ar      1 <0>        -0.2053
     23 C19         4.1923   -0.3255    0.0459 C.ar      1 <0>        -0.0630
     24 C20         4.8620   -0.7868    1.1633 C.ar      1 <0>        -0.1711
     25 C21         4.1546   -1.1466    2.3025 C.ar      1 <0>         0.0965
     26 C22         2.7716   -1.0359    2.3208 C.ar      1 <0>        -0.0239
     27 O2          2.0593   -1.3716    3.4324 O.3       1 <0>        -0.3095
     28 C23         2.7311   -2.1747    4.4089 C.3       1 <0>         0.0240
     29 C24         4.1267   -1.5801    4.6416 C.3       1 <0>         0.0204
     30 O3          4.8314   -1.6025    3.3920 O.3       1 <0>        -0.3061
     31 H2          0.9858    1.9233    0.0186 H         1 <0>         0.0798
     32 H3         -0.5602    1.8979   -0.8632 H         1 <0>         0.0697
     33 H4         -0.5505    1.8864    0.9167 H         1 <0>         0.0688
     34 H5         -1.9753    0.4142   -1.6795 H         1 <0>         0.4092
     35 H6         -3.7727   -0.7954    1.0966 H         1 <0>         0.1386
     36 H7         -6.0207   -1.7931    1.0109 H         1 <0>         0.1256
     37 H8         -7.0476   -2.3341   -1.1595 H         1 <0>         0.1243
     38 H9         -5.8307   -1.8790   -3.2494 H         1 <0>         0.1260
     39 H10        -4.0918   -0.6582   -4.3501 H         1 <0>         0.0882
     40 H11        -2.7880    0.1209   -3.4220 H         1 <0>         0.0753
     41 H12        -0.8103   -1.1299   -2.7673 H         1 <0>         0.1114
     42 H13         0.6860   -3.0152   -3.2868 H         1 <0>         0.1213
     43 H14        -0.1248   -4.8867   -4.6664 H         1 <0>         0.1217
     44 H15        -2.4323   -4.8733   -5.5258 H         1 <0>         0.1226
     45 H16        -3.9312   -2.9920   -4.9994 H         1 <0>         0.1216
     46 H17         0.2042   -0.7184    1.9953 H         1 <0>         0.4154
     47 H18         2.2940    0.1393   -0.8191 H         1 <0>         0.1294
     48 H19         4.7472   -0.0467   -0.8377 H         1 <0>         0.1324
     49 H20         5.9389   -0.8680    1.1503 H         1 <0>         0.1314
     50 H21         2.1678   -2.1668    5.3420 H         1 <0>         0.1205
     51 H22         2.8235   -3.1974    4.0432 H         1 <0>         0.0753
     52 H23         4.0343   -0.5556    5.0021 H         1 <0>         0.0790
     53 H24         4.6648   -2.1812    5.3746 H         1 <0>         0.1213
@<TRIPOS>BOND
     1    1    2 1
     2    1   31 1
     3    1   32 1
     4    1   33 1
     5    2    3 1
     6    2    4 1
     7    2   20 1
     8    4    5 2
     9    4    6 am
    10    6    7 1
    11    6   34 1
    12    7   12 ar
    13    7    8 ar
    14    8    9 ar
    15    8   35 1
    16    9   10 ar
    17    9   36 1
    18   10   11 ar
    19   10   37 1
    20   11   12 ar
    21   11   38 1
    22   12   13 1
    23   13   14 1
    24   13   39 1
    25   13   40 1
    26   14   19 ar
    27   14   15 ar
    28   15   16 ar
    29   15   41 1
    30   16   17 ar
    31   16   42 1
    32   17   18 ar
    33   17   43 1
    34   18   19 ar
    35   18   44 1
    36   19   45 1
    37   20   21 1
    38   20   46 1
    39   21   26 ar
    40   21   22 ar
    41   22   23 ar
    42   22   47 1
    43   23   24 ar
    44   23   48 1
    45   24   25 ar
    46   24   49 1
    47   25   30 1
    48   25   26 ar
    49   26   27 1
    50   27   28 1
    51   28   29 1
    52   28   50 1
    53   28   51 1
    54   29   30 1
    55   29   52 1
    56   29   53 1
@<TRIPOS>MOLECULE
ZINC67584860
   60    62     0     0     0
SMALL
USER_CHARGES

@<TRIPOS>ATOM
      1 C1          0.3569    0.9793    1.5337 C.3       1 <0>        -0.1540
      2 C2          0.3047   -0.5184    1.2253 C.3       1 <0>        -0.1109
      3 C3         -1.1145   -0.9028    0.8022 C.3       1 <0>        -0.1400
      4 C4         -1.1659   -2.3780    0.4984 C.2       1 <0>         0.5101
      5 O1         -0.1659   -3.0552    0.6094 O.2       1 <0>        -0.5123
      6 N1         -2.3232   -2.9447    0.1035 N.am      1 <0>        -0.6695
      7 C5         -2.3547   -4.2985   -0.2491 C.ar      1 <0>         0.1670
      8 C6         -1.1846   -4.9466   -0.6249 C.ar      1 <0>        -0.1541
      9 C7         -1.2149   -6.2831   -0.9732 C.ar      1 <0>        -0.0823
     10 C8         -2.4081   -6.9795   -0.9490 C.ar      1 <0>        -0.1500
     11 C9         -3.5813   -6.3372   -0.5742 C.ar      1 <0>         0.1859
     12 C10        -3.5533   -4.9963   -0.2183 C.ar      1 <0>        -0.1573
     13 C11        -4.8231   -4.2981    0.1953 C.3       1 <0>        -0.1125
     14 N2         -4.7894   -7.0431   -0.5505 N.am      1 <0>        -0.6767
     15 C12        -4.7846   -8.3822   -0.3976 C.2       1 <0>         0.7138
     16 O2         -3.7295   -8.9834   -0.3370 O.2       1 <0>        -0.5600
     17 N3         -5.9494   -9.0548   -0.3118 N.am      1 <0>        -0.5906
     18 C13        -5.9458  -10.4936   -0.0357 C.3       1 <0>         0.1692
     19 C14        -5.8658  -10.7193    1.4522 C.ar      1 <0>        -0.1169
     20 C15        -4.6336  -10.8179    2.0711 C.ar      1 <0>        -0.0873
     21 C16        -4.5603  -11.0249    3.4358 C.ar      1 <0>        -0.1220
     22 C17        -5.7190  -11.1330    4.1818 C.ar      1 <0>        -0.0745
     23 C18        -6.9512  -11.0335    3.5631 C.ar      1 <0>        -0.1242
     24 C19        -7.0245  -10.8221    2.1989 C.ar      1 <0>        -0.1017
     25 C20        -5.6390  -11.3597    5.6695 C.3       1 <0>        -0.0876
     26 C21        -5.6052  -10.0103    6.3899 C.3       1 <0>        -0.1467
     27 C22        -7.2191   -8.3473   -0.4947 C.3       1 <0>         0.0596
     28 C23        -8.5077   -9.1587   -0.3469 C.3       1 <0>        -0.1778
     29 C24        -8.0500   -8.6954   -1.7314 C.3       1 <0>        -0.1878
     30 H1          1.3680    1.2531    1.8351 H         1 <0>         0.0598
     31 H2          0.0777    1.5434    0.6438 H         1 <0>         0.0553
     32 H3         -0.3377    1.2082    2.3418 H         1 <0>         0.0550
     33 H4          0.9994   -0.7474    0.4171 H         1 <0>         0.0711
     34 H5          0.5840   -1.0826    2.1151 H         1 <0>         0.0708
     35 H6         -1.8091   -0.6739    1.6104 H         1 <0>         0.0964
     36 H7         -1.3937   -0.3387   -0.0877 H         1 <0>         0.0978
     37 H8         -3.1342   -2.4142    0.0636 H         1 <0>         0.4100
     38 H9         -0.2504   -4.4050   -0.6451 H         1 <0>         0.1522
     39 H10        -0.3041   -6.7846   -1.2653 H         1 <0>         0.1279
     40 H11        -2.4286   -8.0242   -1.2222 H         1 <0>         0.1571
     41 H12        -5.3054   -3.8704   -0.6837 H         1 <0>         0.0706
     42 H13        -5.4955   -5.0155    0.6657 H         1 <0>         0.0649
     43 H14        -4.5869   -3.5034    0.9029 H         1 <0>         0.0670
     44 H15        -5.6303   -6.5687   -0.6440 H         1 <0>         0.4054
     45 H16        -6.8620  -10.9400   -0.4222 H         1 <0>         0.0901
     46 H17        -5.0847  -10.9543   -0.5199 H         1 <0>         0.0952
     47 H18        -3.7283  -10.7335    1.4882 H         1 <0>         0.1298
     48 H19        -3.5976  -11.1027    3.9192 H         1 <0>         0.1204
     49 H20        -7.8565  -11.1182    4.1458 H         1 <0>         0.1201
     50 H21        -7.9871  -10.7407    1.7161 H         1 <0>         0.1201
     51 H22        -6.5109  -11.9253    5.9982 H         1 <0>         0.0718
     52 H23        -4.7334  -11.9193    5.9036 H         1 <0>         0.0721
     53 H24        -5.5474  -10.1743    7.4660 H         1 <0>         0.0588
     54 H25        -4.7334   -9.4447    6.0612 H         1 <0>         0.0552
     55 H26        -6.5108   -9.4507    6.1559 H         1 <0>         0.0546
     56 H27        -7.2338   -7.3122   -0.1535 H         1 <0>         0.1219
     57 H28        -8.4108  -10.2190   -0.1136 H         1 <0>         0.1057
     58 H29        -9.3705   -8.6576    0.0918 H         1 <0>         0.1077
     59 H30        -8.6117   -7.8893   -2.2035 H         1 <0>         0.1053
     60 H31        -7.6520   -9.4508   -2.4089 H         1 <0>         0.1009
@<TRIPOS>BOND
     1    1    2 1
     2    1   30 1
     3    1   31 1
     4    1   32 1
     5    2    3 1
     6    2   33 1
     7    2   34 1
     8    3    4 1
     9    3   35 1
    10    3   36 1
    11    4    5 2
    12    4    6 am
    13    6    7 1
    14    6   37 1
    15    7   12 ar
    16    7    8 ar
    17    8    9 ar
    18    8   38 1
    19    9   10 ar
    20    9   39 1
    21   10   11 ar
    22   10   40 1
    23   11   12 ar
    24   11   14 1
    25   12   13 1
    26   13   41 1
    27   13   42 1
    28   13   43 1
    29   14   15 am
    30   14   44 1
    31   15   16 2
    32   15   17 am
    33   17   18 1
    34   17   27 1
    35   18   19 1
    36   18   45 1
    37   18   46 1
    38   19   24 ar
    39   19   20 ar
    40   20   21 ar
    41   20   47 1
    42   21   22 ar
    43   21   48 1
    44   22   23 ar
    45   22   25 1
    46   23   24 ar
    47   23   49 1
    48   24   50 1
    49   25   26 1
    50   25   51 1
    51   25   52 1
    52   26   53 1
    53   26   54 1
    54   26   55 1
    55   27   29 1
    56   27   28 1
    57   27   56 1
    58   28   29 1
    59   28   57 1
    60   28   58 1
    61   29   59 1
    62   29   60 1
@<TRIPOS>MOLECULE
ZINC16496468
   65    69     0     0     0
SMALL
USER_CHARGES
(2R)-1-[3-[(4-chlorophenyl)methyl]-1,2,4-thiadiazol-5-yl]-N-(3,3-diphenylpropyl)pyrrolidine-2-carboxamide
@<TRIPOS>ATOM
      1 C1         -8.2525   -1.0611   -5.7653 C.ar      1 <0>        -0.1211
      2 C2         -8.1281   -0.7647   -4.4208 C.ar      1 <0>        -0.1177
      3 C3         -7.3662    0.3166   -4.0191 C.ar      1 <0>        -0.1141
      4 C4         -6.7284    1.1011   -4.9618 C.ar      1 <0>        -0.0744
      5 C5         -6.8571    0.8077   -6.3065 C.ar      1 <0>        -0.1128
      6 C6         -7.6158   -0.2758   -6.7080 C.ar      1 <0>        -0.1156
      7 C7         -5.8978    2.2798   -4.5238 C.3       1 <0>        -0.0036
      8 C8         -4.8868    1.8272   -3.4684 C.3       1 <0>        -0.1219
      9 C9         -3.8964    0.8460   -4.0986 C.3       1 <0>         0.1211
     10 N1         -2.9283    0.4126   -3.0880 N.am      1 <0>        -0.7271
     11 C10        -1.9543   -0.4586   -3.4178 C.2       1 <0>         0.5189
     12 O1         -1.8793   -0.8839   -4.5511 O.2       1 <0>        -0.5029
     13 C11        -0.9585   -0.9044   -2.3782 C.3       1 <0>         0.0451
     14 H1         -0.6801   -0.0692   -1.7354 H         1 <0>         0.0969
     15 C12        -1.5432   -2.0636   -1.5334 C.3       1 <0>        -0.1142
     16 C13        -0.2544   -2.7611   -1.0240 C.3       1 <0>        -0.1408
     17 C14         0.7149   -2.6135   -2.2156 C.3       1 <0>         0.0522
     18 N2          0.2407   -1.4770   -3.0263 N.pl3     1 <0>        -0.3925
     19 C15         1.2311   -0.5220   -3.1684 C.2       1 <0>         0.3007
     20 N3          2.4368   -0.6375   -3.7081 N.2       1 <0>        -0.5377
     21 C16         3.2182    0.4167   -3.7339 C.2       1 <0>         0.2882
     22 N4          2.7973    1.5523   -3.2311 N.2       1 <0>        -0.4411
     23 S1          1.2257    1.1453   -2.6877 S.3       1 <0>         0.1309
     24 C17         4.5949    0.3224   -4.3394 C.3       1 <0>         0.0040
     25 C18         4.5218    0.6543   -5.8075 C.ar      1 <0>        -0.0839
     26 C19         4.3041   -0.3494   -6.7328 C.ar      1 <0>        -0.0859
     27 C20         4.2313   -0.0448   -8.0790 C.ar      1 <0>        -0.1113
     28 C21         4.3877    1.2634   -8.5014 C.ar      1 <0>        -0.0307
     29 C22         4.6112    2.2667   -7.5753 C.ar      1 <0>        -0.1122
     30 C23         4.6781    1.9616   -6.2290 C.ar      1 <0>        -0.0914
     31 Cl1         4.3029    1.6459  -10.1926 Cl        1 <0>        -0.0689
     32 C24        -6.7968    3.3376   -3.9373 C.ar      1 <0>        -0.0729
     33 C25        -7.4510    3.1037   -2.7422 C.ar      1 <0>        -0.1137
     34 C26        -8.2725    4.0755   -2.2023 C.ar      1 <0>        -0.1179
     35 C27        -8.4463    5.2780   -2.8615 C.ar      1 <0>        -0.1215
     36 C28        -7.7962    5.5099   -4.0592 C.ar      1 <0>        -0.1169
     37 C29        -6.9716    4.5396   -4.5973 C.ar      1 <0>        -0.1132
     38 H2         -8.8475   -1.9061   -6.0791 H         1 <0>         0.1210
     39 H3         -8.6258   -1.3780   -3.6843 H         1 <0>         0.1211
     40 H4         -7.2690    0.5482   -2.9687 H         1 <0>         0.1206
     41 H5         -6.3625    1.4233   -7.0433 H         1 <0>         0.1213
     42 H6         -7.7134   -0.5072   -7.7584 H         1 <0>         0.1222
     43 H7         -5.3671    2.6896   -5.3832 H         1 <0>         0.0906
     44 H8         -5.4121    1.3371   -2.6487 H         1 <0>         0.0761
     45 H9         -4.3468    2.6940   -3.0873 H         1 <0>         0.0786
     46 H10        -3.3711    1.3361   -4.9184 H         1 <0>         0.0696
     47 H11        -4.4364   -0.0208   -4.4797 H         1 <0>         0.0747
     48 H12        -2.9883    0.7528   -2.1816 H         1 <0>         0.4008
     49 H13        -2.1339   -2.7387   -2.1526 H         1 <0>         0.0944
     50 H14        -2.1351   -1.6815   -0.7017 H         1 <0>         0.0994
     51 H15        -0.4444   -3.8129   -0.8097 H         1 <0>         0.0983
     52 H16         0.1370   -2.2519   -0.1433 H         1 <0>         0.0817
     53 H17         0.7081   -3.5244   -2.8142 H         1 <0>         0.1063
     54 H18         1.7238   -2.4154   -1.8536 H         1 <0>         0.0806
     55 H19         5.2604    1.0268   -3.8403 H         1 <0>         0.1049
     56 H20         4.9782   -0.6904   -4.2145 H         1 <0>         0.1081
     57 H21         4.1864   -1.3712   -6.4034 H         1 <0>         0.1366
     58 H22         4.0568   -0.8284   -8.8015 H         1 <0>         0.1354
     59 H23         4.7337    3.2880   -7.9045 H         1 <0>         0.1349
     60 H24         4.8523    2.7448   -5.5059 H         1 <0>         0.1344
     61 H25        -7.3178    2.1628   -2.2289 H         1 <0>         0.1212
     62 H26        -8.7807    3.8942   -1.2667 H         1 <0>         0.1217
     63 H27        -9.0902    6.0362   -2.4410 H         1 <0>         0.1213
     64 H28        -7.9323    6.4493   -4.5745 H         1 <0>         0.1223
     65 H29        -6.4638    4.7207   -5.5330 H         1 <0>         0.1216
@<TRIPOS>BOND
     1    1    6 ar
     2    1    2 ar
     3    1   38 1
     4    2    3 ar
     5    2   39 1
     6    3    4 ar
     7    3   40 1
     8    4    5 ar
     9    4    7 1
    10    5    6 ar
    11    5   41 1
    12    6   42 1
    13    7    8 1
    14    7   32 1
    15    7   43 1
    16    8    9 1
    17    8   44 1
    18    8   45 1
    19    9   10 1
    20    9   46 1
    21    9   47 1
    22   10   11 am
    23   10   48 1
    24   11   12 2
    25   11   13 1
    26   13   14 1
    27   13   18 1
    28   13   15 1
    29   15   16 1
    30   15   49 1
    31   15   50 1
    32   16   17 1
    33   16   51 1
    34   16   52 1
    35   17   18 1
    36   17   53 1
    37   17   54 1
    38   18   19 1
    39   19   23 1
    40   19   20 2
    41   20   21 1
    42   21   22 2
    43   21   24 1
    44   22   23 1
    45   24   25 1
    46   24   55 1
    47   24   56 1
    48   25   30 ar
    49   25   26 ar
    50   26   27 ar
    51   26   57 1
    52   27   28 ar
    53   27   58 1
    54   28   29 ar
    55   28   31 1
    56   29   30 ar
    57   29   59 1
    58   30   60 1
    59   32   37 ar
    60   32   33 ar
    61   33   34 ar
    62   33   61 1
    63   34   35 ar
    64   34   62 1
    65   35   36 ar
    66   35   63 1
    67   36   37 ar
    68   36   64 1
    69   37   65 1
@<TRIPOS>MOLECULE
ZINC35099216
   68    73     0     0     0
SMALL
USER_CHARGES

@<TRIPOS>ATOM
      1 C1         -0.0167    1.3781    0.0096 C.ar      1 <0>        -0.1072
      2 C2          1.1709    2.0855    0.0021 C.ar      1 <0>        -0.1192
      3 C3          2.3773    1.4107   -0.0130 C.ar      1 <0>        -0.1115
      4 C4          2.3960    0.0285   -0.0201 C.ar      1 <0>        -0.0990
      5 C5          1.2084   -0.6789   -0.0117 C.ar      1 <0>        -0.0769
      6 C6          0.0021   -0.0041    0.0020 C.ar      1 <0>        -0.1172
      7 C7          3.7112   -0.7071   -0.0376 C.3       1 <0>         0.0453
      8 H1          4.5299    0.0124   -0.0426 H         1 <0>         0.1060
      9 C8          3.7899   -1.5662   -1.2732 C.2       1 <0>         0.3103
     10 N1          3.1440   -2.6821   -1.4475 N.2       1 <0>        -0.4672
     11 C9          3.4425   -3.1965   -2.6682 C.ar      1 <0>         0.0492
     12 C10         3.0419   -4.3464   -3.3537 C.ar      1 <0>        -0.0593
     13 C11         3.5301   -4.5981   -4.6044 C.ar      1 <0>        -0.1276
     14 C12         4.4234   -3.7222   -5.2051 C.ar      1 <0>        -0.0960
     15 C13         4.8325   -2.5817   -4.5478 C.ar      1 <0>        -0.1125
     16 C14         4.3465   -2.3091   -3.2762 C.ar      1 <0>         0.0550
     17 N2          4.5420   -1.2850   -2.3713 N.pl3     1 <0>        -0.4721
     18 C15         5.4026   -0.1141   -2.5576 C.3       1 <0>         0.0737
     19 C16         6.8105   -0.4298   -2.0486 C.3       1 <0>         0.0667
     20 H2          7.1833   -1.3264   -2.5437 H         1 <0>         0.1128
     21 C17         7.7396    0.7463   -2.3560 C.3       1 <0>         0.1025
     22 N3          9.1110    0.3972   -1.9771 N.pl3     1 <0>        -0.6225
     23 C18         9.6055    0.6771   -0.6222 C.3       1 <0>         0.1327
     24 C19        11.0072    1.2876   -0.7515 C.3       1 <0>        -0.1374
     25 C20        11.9384    0.2554   -1.3870 C.3       1 <0>        -0.0729
     26 C21        11.3331   -0.2922   -2.6525 C.ar      1 <0>        -0.1475
     27 C22         9.9695   -0.2134   -2.8979 C.ar      1 <0>         0.2165
     28 C23         9.4407   -0.7382   -4.0718 C.ar      1 <0>        -0.1935
     29 C24        10.2715   -1.3418   -4.9946 C.ar      1 <0>        -0.0788
     30 C25        11.6299   -1.4235   -4.7499 C.ar      1 <0>        -0.1697
     31 C26        12.1610   -0.8928   -3.5857 C.ar      1 <0>        -0.0773
     32 O1          6.7689   -0.6475   -0.6369 O.3       1 <0>        -0.5335
     33 S1          3.8369   -1.7560    1.4371 S.3       1 <0>        -0.0288
     34 C27         3.8786   -0.6088    2.7738 C.ar      1 <0>        -0.0929
     35 C28         3.8105    0.7563    2.5225 C.ar      1 <0>        -0.1420
     36 C29         3.8435    1.6524    3.5726 C.ar      1 <0>        -0.1000
     37 C30         3.9441    1.1928    4.8732 C.ar      1 <0>        -0.1251
     38 C31         4.0126   -0.1650    5.1270 C.ar      1 <0>        -0.0996
     39 C32         3.9739   -1.0672    4.0824 C.ar      1 <0>        -0.0989
     40 H3         -0.9591    1.9053    0.0259 H         1 <0>         0.1248
     41 H4          1.1563    3.1654    0.0076 H         1 <0>         0.1255
     42 H5          3.3051    1.9634   -0.0196 H         1 <0>         0.1197
     43 H6          1.2231   -1.7588   -0.0176 H         1 <0>         0.1394
     44 H7         -0.9258   -0.5567    0.0082 H         1 <0>         0.1268
     45 H8          2.3478   -5.0352   -2.8952 H         1 <0>         0.1304
     46 H9          3.2181   -5.4880   -5.1309 H         1 <0>         0.1308
     47 H10         4.8008   -3.9358   -6.1942 H         1 <0>         0.1310
     48 H11         5.5275   -1.9031   -5.0199 H         1 <0>         0.1199
     49 H12         5.4475    0.1389   -3.6169 H         1 <0>         0.1050
     50 H13         4.9950    0.7289   -1.9997 H         1 <0>         0.0951
     51 H14         7.7028    0.9692   -3.4223 H         1 <0>         0.0866
     52 H15         7.4179    1.6209   -1.7907 H         1 <0>         0.0812
     53 H16         8.9400    1.3826   -0.1247 H         1 <0>         0.0746
     54 H17         9.6576   -0.2489   -0.0496 H         1 <0>         0.0643
     55 H18        10.9619    2.1757   -1.3819 H         1 <0>         0.0684
     56 H19        11.3807    1.5572    0.2363 H         1 <0>         0.0782
     57 H20        12.8936    0.7265   -1.6191 H         1 <0>         0.0746
     58 H21        12.1043   -0.5611   -0.6843 H         1 <0>         0.0720
     59 H22         8.3795   -0.6738   -4.2617 H         1 <0>         0.1147
     60 H23         9.8608   -1.7499   -5.9063 H         1 <0>         0.1200
     61 H24        12.2800   -1.8946   -5.4722 H         1 <0>         0.1186
     62 H25        13.2226   -0.9591   -3.3987 H         1 <0>         0.1205
     63 H26         6.4460    0.1109   -0.1313 H         1 <0>         0.3637
     64 H27         3.7323    1.1159    1.5072 H         1 <0>         0.1285
     65 H28         3.7910    2.7134    3.3780 H         1 <0>         0.1229
     66 H29         3.9697    1.8960    5.6925 H         1 <0>         0.1238
     67 H30         4.0914   -0.5203    6.1438 H         1 <0>         0.1276
     68 H31         4.0221   -2.1275    4.2817 H         1 <0>         0.1268
@<TRIPOS>BOND
     1    1    6 ar
     2    1    2 ar
     3    1   40 1
     4    2    3 ar
     5    2   41 1
     6    3    4 ar
     7    3   42 1
     8    4    5 ar
     9    4    7 1
    10    5    6 ar
    11    5   43 1
    12    6   44 1
    13    7    8 1
    14    7    9 1
    15    7   33 1
    16    9   17 1
    17    9   10 2
    18   10   11 1
    19   11   16 ar
    20   11   12 ar
    21   12   13 ar
    22   12   45 1
    23   13   14 ar
    24   13   46 1
    25   14   15 ar
    26   14   47 1
    27   15   16 ar
    28   15   48 1
    29   16   17 1
    30   17   18 1
    31   18   19 1
    32   18   49 1
    33   18   50 1
    34   19   20 1
    35   19   21 1
    36   19   32 1
    37   21   22 1
    38   21   51 1
    39   21   52 1
    40   22   27 1
    41   22   23 1
    42   23   24 1
    43   23   53 1
    44   23   54 1
    45   24   25 1
    46   24   55 1
    47   24   56 1
    48   25   26 1
    49   25   57 1
    50   25   58 1
    51   26   31 ar
    52   26   27 ar
    53   27   28 ar
    54   28   29 ar
    55   28   59 1
    56   29   30 ar
    57   29   60 1
    58   30   31 ar
    59   30   61 1
    60   31   62 1
    61   32   63 1
    62   33   34 1
    63   34   39 ar
    64   34   35 ar
    65   35   36 ar
    66   35   64 1
    67   36   37 ar
    68   36   65 1
    69   37   38 ar
    70   37   66 1
    71   38   39 ar
    72   38   67 1
    73   39   68 1
@<TRIPOS>MOLECULE
ZINC36546538
   62    65     0     0     0
SMALL
USER_CHARGES

@<TRIPOS>ATOM
      1 C1          2.5780    3.4866   -1.0350 C.ar      1 <0>        -0.0928
      2 C2          2.3476    2.5935   -2.0664 C.ar      1 <0>        -0.1246
      3 C3          2.9385    1.3471   -2.0485 C.ar      1 <0>        -0.0656
      4 C4          3.7708    0.9879   -0.9870 C.ar      1 <0>        -0.1310
      5 C5          3.9994    1.8938    0.0500 C.ar      1 <0>        -0.0892
      6 C6          3.4019    3.1369    0.0201 C.ar      1 <0>        -0.1234
      7 C7          4.4068   -0.3462   -0.9611 C.2       1 <0>         0.5749
      8 O1          4.9296   -0.7900   -1.9649 O.2       1 <0>        -0.5014
      9 N1          4.4073   -1.0705    0.1755 N.am      1 <0>        -0.5554
     10 C8          3.7363   -0.5960    1.3077 C.ar      1 <0>         0.1499
     11 C9          2.3724   -0.8146    1.4510 C.ar      1 <0>        -0.0687
     12 C10         1.7128   -0.3448    2.5698 C.ar      1 <0>        -0.0992
     13 C11         2.4087    0.3428    3.5474 C.ar      1 <0>        -0.0957
     14 C12         3.7667    0.5626    3.4087 C.ar      1 <0>        -0.1040
     15 C13         4.4342    0.0903    2.2942 C.ar      1 <0>        -0.0417
     16 Cl1         6.1406    0.3602    2.1238 Cl        1 <0>        -0.0602
     17 C14         5.1103   -2.3549    0.2253 C.3       1 <0>         0.1756
     18 H1          6.1663   -2.1998    0.0041 H         1 <0>         0.1066
     19 C15         4.5160   -3.2927   -0.7936 C.ar      1 <0>        -0.0571
     20 C16         3.1435   -3.3837   -0.9316 C.ar      1 <0>        -0.0934
     21 C17         2.5984   -4.2440   -1.8662 C.ar      1 <0>        -0.0692
     22 C18         3.4256   -5.0130   -2.6631 C.ar      1 <0>        -0.1745
     23 C19         4.7981   -4.9215   -2.5257 C.ar      1 <0>        -0.0672
     24 C20         5.3433   -4.0580   -1.5941 C.ar      1 <0>        -0.0935
     25 C21         2.8313   -5.9516   -3.6814 C.3       1 <0>         0.5081
     26 F1          2.6730   -5.2800   -4.8983 F         1 <0>        -0.1745
     27 F2          3.6840   -7.0462   -3.8603 F         1 <0>        -0.1761
     28 F3          1.5851   -6.4001   -3.2307 F         1 <0>        -0.1763
     29 C22         4.9679   -2.9524    1.6014 C.2       1 <0>         0.5187
     30 O2          3.8874   -2.9554    2.1524 O.2       1 <0>        -0.5042
     31 N2          6.0411   -3.4835    2.2199 N.am      1 <0>        -0.7163
     32 C23         5.9027   -4.0645    3.5576 C.3       1 <0>         0.1490
     33 C24         6.0272   -2.9597    4.6088 C.3       1 <0>        -0.1256
     34 C25         5.8826   -3.5664    6.0059 C.3       1 <0>        -0.1163
     35 C26         6.9826   -4.6066    6.2265 C.3       1 <0>        -0.1227
     36 C27         6.8581   -5.7114    5.1754 C.3       1 <0>        -0.1157
     37 C28         7.0028   -5.1047    3.7783 C.3       1 <0>        -0.1271
     38 H2          2.1163    4.4627   -1.0559 H         1 <0>         0.1279
     39 H3          1.7034    2.8727   -2.8870 H         1 <0>         0.1308
     40 H4          2.7572    0.6506   -2.8538 H         1 <0>         0.1299
     41 H5          4.6420    1.6219    0.8744 H         1 <0>         0.1325
     42 H6          3.5776    3.8386    0.8221 H         1 <0>         0.1281
     43 H7          1.8279   -1.3511    0.6881 H         1 <0>         0.1289
     44 H8          0.6521   -0.5143    2.6813 H         1 <0>         0.1334
     45 H9          1.8901    0.7093    4.4210 H         1 <0>         0.1351
     46 H10         4.3072    1.1000    4.1739 H         1 <0>         0.1368
     47 H11         2.4972   -2.7828   -0.3090 H         1 <0>         0.1334
     48 H12         1.5261   -4.3155   -1.9736 H         1 <0>         0.1379
     49 H13         5.4444   -5.5226   -3.1481 H         1 <0>         0.1401
     50 H14         6.4157   -3.9837   -1.4893 H         1 <0>         0.1365
     51 H15         6.9053   -3.4811    1.7792 H         1 <0>         0.4006
     52 H16         4.9273   -4.5427    3.6469 H         1 <0>         0.0897
     53 H17         7.0026   -2.4815    4.5195 H         1 <0>         0.0634
     54 H18         5.2435   -2.2186    4.4516 H         1 <0>         0.0673
     55 H19         5.9712   -2.7793    6.7547 H         1 <0>         0.0650
     56 H20         4.9071   -4.0446    6.0952 H         1 <0>         0.0638
     57 H21         7.9581   -4.1284    6.1373 H         1 <0>         0.0627
     58 H22         6.8796   -5.0388    7.2219 H         1 <0>         0.0645
     59 H23         7.6419   -6.4524    5.3326 H         1 <0>         0.0682
     60 H24         5.8827   -6.1896    5.2647 H         1 <0>         0.0652
     61 H25         6.9141   -5.8917    3.0294 H         1 <0>         0.0693
     62 H26         7.9782   -4.6265    3.6890 H         1 <0>         0.0688
@<TRIPOS>BOND
     1    1    6 ar
     2    1    2 ar
     3    1   38 1
     4    2    3 ar
     5    2   39 1
     6    3    4 ar
     7    3   40 1
     8    4    5 ar
     9    4    7 1
    10    5    6 ar
    11    5   41 1
    12    6   42 1
    13    7    8 2
    14    7    9 am
    15    9   10 1
    16    9   17 1
    17   10   15 ar
    18   10   11 ar
    19   11   12 ar
    20   11   43 1
    21   12   13 ar
    22   12   44 1
    23   13   14 ar
    24   13   45 1
    25   14   15 ar
    26   14   46 1
    27   15   16 1
    28   17   18 1
    29   17   19 1
    30   17   29 1
    31   19   24 ar
    32   19   20 ar
    33   20   21 ar
    34   20   47 1
    35   21   22 ar
    36   21   48 1
    37   22   23 ar
    38   22   25 1
    39   23   24 ar
    40   23   49 1
    41   24   50 1
    42   25   26 1
    43   25   27 1
    44   25   28 1
    45   29   30 2
    46   29   31 am
    47   31   32 1
    48   31   51 1
    49   32   37 1
    50   32   33 1
    51   32   52 1
    52   33   34 1
    53   33   53 1
    54   33   54 1
    55   34   35 1
    56   34   55 1
    57   34   56 1
    58   35   36 1
    59   35   57 1
    60   35   58 1
    61   36   37 1
    62   36   59 1
    63   36   60 1
    64   37   61 1
    65   37   62 1
@<TRIPOS>MOLECULE
ZINC40844543
   70    74     0     0     0
SMALL
USER_CHARGES

@<TRIPOS>ATOM
      1 C1          1.6456   -1.1993    2.1965 C.3       1 <0>        -0.1522
      2 C2          0.7410   -1.1921    0.9626 C.3       1 <0>         0.0553
      3 O1          1.4515   -1.7350   -0.1521 O.3       1 <0>        -0.3462
      4 C3          0.7901   -1.8003   -1.3278 C.2       1 <0>         0.5339
      5 O2         -0.3598   -1.4060   -1.4024 O.2       1 <0>        -0.4932
      6 C4          1.4285   -2.3229   -2.4645 C.2       1 <0>        -0.3219
      7 C5          1.6074   -3.6629   -2.5748 C.2       1 <0>         0.4044
      8 O3          2.2124   -4.2061   -3.6422 O.3       1 <0>        -0.2083
      9 C6          2.3006   -3.5088   -4.8032 C.ar      1 <0>         0.1185
     10 C7          2.5410   -4.2095   -5.9945 C.ar      1 <0>        -0.1120
     11 C8          2.6383   -3.5630   -7.1848 C.ar      1 <0>        -0.0714
     12 C9          2.4959   -2.1653   -7.2320 C.ar      1 <0>        -0.0632
     13 C10         2.5888   -1.4623   -8.4450 C.ar      1 <0>        -0.0980
     14 C11         2.4444   -0.1088   -8.4513 C.ar      1 <0>        -0.1170
     15 C12         2.2061    0.5930   -7.2710 C.ar      1 <0>        -0.1048
     16 C13         2.1110   -0.0544   -6.0778 C.ar      1 <0>        -0.1090
     17 C14         2.2535   -1.4524   -6.0321 C.ar      1 <0>        -0.0146
     18 C15         2.1597   -2.1519   -4.8156 C.ar      1 <0>        -0.1188
     19 C16         1.8987   -1.3902   -3.5455 C.3       1 <0>         0.0833
     20 H1          1.1355   -0.6333   -3.7265 H         1 <0>         0.1009
     21 C17         3.1715   -0.7152   -3.1035 C.ar      1 <0>        -0.0764
     22 C18         4.2899   -1.4730   -2.8102 C.ar      1 <0>        -0.0952
     23 C19         5.4574   -0.8538   -2.4048 C.ar      1 <0>        -0.1153
     24 C20         5.5067    0.5231   -2.2930 C.ar      1 <0>        -0.1173
     25 C21         4.3887    1.2809   -2.5872 C.ar      1 <0>        -0.1163
     26 C22         3.2224    0.6621   -2.9967 C.ar      1 <0>        -0.1128
     27 N1          1.1584   -4.4844   -1.5684 N.am      1 <0>        -0.6500
     28 C23         1.4228   -5.8054   -1.6083 C.2       1 <0>         0.5475
     29 O4          2.0589   -6.2708   -2.5353 O.2       1 <0>        -0.4824
     30 C24         0.9448   -6.6798   -0.5370 C.2       1 <0>        -0.2319
     31 C25         1.2094   -8.0018   -0.5769 C.2       1 <0>         0.0122
     32 C26         0.7286   -8.8814    0.5008 C.ar      1 <0>        -0.0930
     33 C27        -0.0077   -8.3512    1.5649 C.ar      1 <0>        -0.0916
     34 C28        -0.4546   -9.1818    2.5708 C.ar      1 <0>        -0.1220
     35 C29        -0.1762  -10.5369    2.5291 C.ar      1 <0>        -0.0556
     36 C30         0.5524  -11.0692    1.4795 C.ar      1 <0>        -0.1189
     37 C31         1.0009  -10.2527    0.4629 C.ar      1 <0>        -0.0842
     38 C32        -0.6684  -11.4375    3.6325 C.3       1 <0>        -0.0619
     39 C33        -1.5909  -12.5072    3.0445 C.3       1 <0>        -0.1459
     40 C34         0.5256  -12.1112    4.3118 C.3       1 <0>        -0.1458
     41 H2          1.9462   -2.2228    2.4207 H         1 <0>         0.0660
     42 H3          2.5315   -0.5950    2.0011 H         1 <0>         0.0677
     43 H4          1.1037   -0.7853    3.0468 H         1 <0>         0.0802
     44 H5         -0.1449   -1.7964    1.1581 H         1 <0>         0.0672
     45 H6          0.4404   -0.1687    0.7384 H         1 <0>         0.0694
     46 H7          2.6511   -5.2835   -5.9644 H         1 <0>         0.1414
     47 H8          2.8246   -4.1201   -8.0911 H         1 <0>         0.1430
     48 H9          2.7735   -1.9930   -9.3673 H         1 <0>         0.1307
     49 H10         2.5159    0.4294   -9.3850 H         1 <0>         0.1257
     50 H11         2.0956    1.6669   -7.3038 H         1 <0>         0.1256
     51 H12         1.9270    0.5027   -5.1709 H         1 <0>         0.1286
     52 H13         4.2513   -2.5487   -2.8975 H         1 <0>         0.1138
     53 H14         6.3309   -1.4459   -2.1750 H         1 <0>         0.1215
     54 H15         6.4187    1.0068   -1.9756 H         1 <0>         0.1216
     55 H16         4.4271    2.3567   -2.4996 H         1 <0>         0.1228
     56 H17         2.3500    1.2544   -3.2301 H         1 <0>         0.1199
     57 H18         0.6513   -4.1134   -0.8294 H         1 <0>         0.4285
     58 H19         0.3802   -6.2667    0.2858 H         1 <0>         0.1355
     59 H20         1.7741   -8.4149   -1.3997 H         1 <0>         0.1399
     60 H21        -0.2255   -7.2940    1.5990 H         1 <0>         0.1275
     61 H22        -1.0231   -8.7738    3.3934 H         1 <0>         0.1267
     62 H23         0.7660  -12.1275    1.4543 H         1 <0>         0.1273
     63 H24         1.5649  -10.6702   -0.3580 H         1 <0>         0.1299
     64 H25        -1.2178  -10.8470    4.3657 H         1 <0>         0.0798
     65 H26        -2.4415  -12.0272    2.5606 H         1 <0>         0.0568
     66 H27        -1.0414  -13.0977    2.3114 H         1 <0>         0.0579
     67 H28        -1.9469  -13.1586    3.8426 H         1 <0>         0.0608
     68 H29         1.1828  -11.3492    4.7307 H         1 <0>         0.0568
     69 H30         0.1696  -12.7626    5.1099 H         1 <0>         0.0608
     70 H31         1.0751  -12.7018    3.5787 H         1 <0>         0.0579
@<TRIPOS>BOND
     1    1    2 1
     2    1   41 1
     3    1   42 1
     4    1   43 1
     5    2    3 1
     6    2   44 1
     7    2   45 1
     8    3    4 1
     9    4    5 2
    10    4    6 1
    11    6   19 1
    12    6    7 2
    13    7    8 1
    14    7   27 1
    15    8    9 1
    16    9   18 ar
    17    9   10 ar
    18   10   11 ar
    19   10   46 1
    20   11   12 ar
    21   11   47 1
    22   12   17 ar
    23   12   13 ar
    24   13   14 ar
    25   13   48 1
    26   14   15 ar
    27   14   49 1
    28   15   16 ar
    29   15   50 1
    30   16   17 ar
    31   16   51 1
    32   17   18 ar
    33   18   19 1
    34   19   20 1
    35   19   21 1
    36   21   26 ar
    37   21   22 ar
    38   22   23 ar
    39   22   52 1
    40   23   24 ar
    41   23   53 1
    42   24   25 ar
    43   24   54 1
    44   25   26 ar
    45   25   55 1
    46   26   56 1
    47   27   28 am
    48   27   57 1
    49   28   29 2
    50   28   30 1
    51   30   31 2
    52   30   58 1
    53   31   32 1
    54   31   59 1
    55   32   37 ar
    56   32   33 ar
    57   33   34 ar
    58   33   60 1
    59   34   35 ar
    60   34   61 1
    61   35   36 ar
    62   35   38 1
    63   36   37 ar
    64   36   62 1
    65   37   63 1
    66   38   39 1
    67   38   40 1
    68   38   64 1
    69   39   65 1
    70   39   66 1
    71   39   67 1
    72   40   68 1
    73   40   69 1
    74   40   70 1
@<TRIPOS>MOLECULE
ZINC59506554
   52    55     0     0     0
SMALL
USER_CHARGES

@<TRIPOS>ATOM
      1 C1         -0.0167    1.3784    0.0096 C.ar      1 <0>        -0.1564
      2 C2          1.1698    2.0883    0.0021 C.ar      1 <0>        -0.0801
      3 C3          2.3773    1.4175   -0.0134 C.ar      1 <0>        -0.1508
      4 C4          2.3989    0.0304   -0.0210 C.ar      1 <0>         0.1262
      5 C5          1.2070   -0.6796   -0.0130 C.ar      1 <0>        -0.2093
      6 C6          0.0021   -0.0041    0.0020 C.ar      1 <0>        -0.0802
      7 O1          3.5855   -0.6319   -0.0368 O.3       1 <0>        -0.3139
      8 C7          3.5315   -2.0598   -0.0438 C.3       1 <0>         0.0452
      9 C8          4.9536   -2.6239   -0.0615 C.3       1 <0>         0.1236
     10 N1          5.6356   -2.2681    1.1853 N.am      1 <0>        -0.7194
     11 C9          6.9079   -2.6610    1.3933 C.2       1 <0>         0.5367
     12 O2          7.4882   -3.3093    0.5484 O.2       1 <0>        -0.5205
     13 C10         7.6095   -2.2949    2.6758 C.3       1 <0>        -0.1584
     14 S1          9.2955   -2.9637    2.6549 S.3       1 <0>         0.1235
     15 C11         9.9741   -2.4575    4.2002 C.2       1 <0>         0.0989
     16 N2          9.4071   -1.7630    5.1619 N.2       1 <0>        -0.5062
     17 C12        10.0524   -1.4441    6.3040 C.ar      1 <0>         0.0808
     18 C13         9.5576   -0.7067    7.4070 C.ar      1 <0>        -0.0447
     19 C14        10.3345   -0.4649    8.4930 C.ar      1 <0>        -0.1345
     20 C15        11.6532   -0.9330    8.5677 C.ar      1 <0>         0.1023
     21 C16        12.1741   -1.6653    7.4963 C.ar      1 <0>        -0.0438
     22 C17        11.3862   -1.9065    6.4029 C.ar      1 <0>        -0.1374
     23 S2         11.6056   -2.7642    4.8623 S.3       1 <0>         0.0642
     24 N3         12.4192   -0.6773    9.6713 N.2       1 <0>        -0.4441
     25 C18        12.4348    0.5179   10.1910 C.2       1 <0>         0.1934
     26 C19        13.2590    0.7931   11.3786 C.ar      1 <0>        -0.0669
     27 C20        14.0320   -0.2240   11.9496 C.ar      1 <0>         0.0130
     28 C21        14.8027    0.0428   13.0632 C.ar      1 <0>        -0.1166
     29 C22        14.8120    1.3116   13.6152 C.ar      1 <0>        -0.0723
     30 C23        14.0502    2.3230   13.0571 C.ar      1 <0>        -0.1131
     31 C24        13.2787    2.0749   11.9397 C.ar      1 <0>         0.0028
     32 Cl1        12.3295    3.3474   11.2372 Cl        1 <0>        -0.0465
     33 Cl2        14.0214   -1.8170   11.2597 Cl        1 <0>        -0.0119
     34 H1         -0.9596    1.9047    0.0260 H         1 <0>         0.1249
     35 H2          1.1525    3.1682    0.0080 H         1 <0>         0.1303
     36 H3          3.3038    1.9724   -0.0200 H         1 <0>         0.1306
     37 H4          1.2211   -1.7595   -0.0193 H         1 <0>         0.1274
     38 H5         -0.9260   -0.5563    0.0082 H         1 <0>         0.1256
     39 H6          3.0134   -2.4083    0.8497 H         1 <0>         0.0725
     40 H7          2.9951   -2.3988   -0.9302 H         1 <0>         0.0842
     41 H8          4.9129   -3.7090   -0.1564 H         1 <0>         0.0959
     42 H9          5.4999   -2.2055   -0.9067 H         1 <0>         0.0855
     43 H10         5.1715   -1.7496    1.8611 H         1 <0>         0.4080
     44 H11         7.6501   -1.2098    2.7708 H         1 <0>         0.1288
     45 H12         7.0631   -2.7134    3.5211 H         1 <0>         0.1282
     46 H13         8.5456   -0.3303    7.3834 H         1 <0>         0.1363
     47 H14         9.9276    0.1011    9.3179 H         1 <0>         0.1353
     48 H15        13.1876   -2.0368    7.5310 H         1 <0>         0.1417
     49 H16        11.8428    1.3063    9.7500 H         1 <0>         0.1220
     50 H17        15.3999   -0.7410   13.5052 H         1 <0>         0.1453
     51 H18        15.4169    1.5136   14.4867 H         1 <0>         0.1470
     52 H19        14.0626    3.3104   13.4945 H         1 <0>         0.1466
@<TRIPOS>BOND
     1    1    6 ar
     2    1    2 ar
     3    1   34 1
     4    2    3 ar
     5    2   35 1
     6    3    4 ar
     7    3   36 1
     8    4    5 ar
     9    4    7 1
    10    5    6 ar
    11    5   37 1
    12    6   38 1
    13    7    8 1
    14    8    9 1
    15    8   39 1
    16    8   40 1
    17    9   10 1
    18    9   41 1
    19    9   42 1
    20   10   11 am
    21   10   43 1
    22   11   12 2
    23   11   13 1
    24   13   14 1
    25   13   44 1
    26   13   45 1
    27   14   15 1
    28   15   23 1
    29   15   16 2
    30   16   17 1
    31   17   22 ar
    32   17   18 ar
    33   18   19 ar
    34   18   46 1
    35   19   20 ar
    36   19   47 1
    37   20   21 ar
    38   20   24 1
    39   21   22 ar
    40   21   48 1
    41   22   23 1
    42   24   25 2
    43   25   26 1
    44   25   49 1
    45   26   31 ar
    46   26   27 ar
    47   27   28 ar
    48   27   33 1
    49   28   29 ar
    50   28   50 1
    51   29   30 ar
    52   29   51 1
    53   30   31 ar
    54   30   52 1
    55   31   32 1
@<TRIPOS>MOLECULE
ZINC16438598
   77    80     0     0     0
SMALL
USER_CHARGES
(2R)-N-isobutyl-N-[2-[[5-methyl-2-(o-tolyl)-4-phenyl-pyrazol-3-yl]amino]-2-oxo-ethyl]-2-phenyl-butanamide
@<TRIPOS>ATOM
      1 C1         -0.7365   -2.9137    2.6344 C.3       1 <0>        -0.1546
      2 C2         -0.5775   -1.8379    3.7107 C.3       1 <0>        -0.1082
      3 C3         -1.0077   -0.4830    3.1449 C.3       1 <0>        -0.0649
      4 H1         -0.4760   -0.2933    2.2125 H         1 <0>         0.0987
      5 C4         -0.6823    0.6024    4.1385 C.ar      1 <0>        -0.0798
      6 C5         -1.2482    0.5774    5.3995 C.ar      1 <0>        -0.0977
      7 C6         -0.9464    1.5706    6.3123 C.ar      1 <0>        -0.1182
      8 C7         -0.0857    2.5938    5.9612 C.ar      1 <0>        -0.1162
      9 C8          0.4761    2.6216    4.6984 C.ar      1 <0>        -0.1199
     10 C9          0.1776    1.6260    3.7870 C.ar      1 <0>        -0.1103
     11 C10        -2.4917   -0.4961    2.8833 C.2       1 <0>         0.5374
     12 O1         -3.2493   -0.9575    3.7105 O.2       1 <0>        -0.5265
     13 N1         -2.9772    0.0049    1.7301 N.am      1 <0>        -0.5912
     14 C11        -2.0705    0.6298    0.7639 C.3       1 <0>         0.1155
     15 C12        -1.4637   -0.4478   -0.1369 C.3       1 <0>        -0.1215
     16 C13        -2.5580   -1.0489   -1.0212 C.3       1 <0>        -0.1495
     17 C14        -0.3802    0.1757   -1.0191 C.3       1 <0>        -0.1473
     18 C15        -4.4115   -0.0754    1.4429 C.3       1 <0>         0.0995
     19 C16        -5.0998    1.1556    1.9739 C.2       1 <0>         0.5006
     20 O2         -4.4556    2.0154    2.5369 O.2       1 <0>        -0.4892
     21 N2         -6.4312    1.3011    1.8233 N.am      1 <0>        -0.6589
     22 C17        -7.0535    2.4757    2.2339 C.2       1 <0>         0.3307
     23 C18        -8.0425    2.5891    3.1943 C.2       1 <0>        -0.1931
     24 C19        -8.3801    3.9532    3.2894 C.2       1 <0>         0.1047
     25 N3         -7.6435    4.6210    2.4422 N.2       1 <0>        -0.2717
     26 N4         -6.7995    3.7290    1.7706 N.pl3     1 <0>        -0.3132
     27 C20        -5.8587    4.0679    0.7889 C.ar      1 <0>         0.1490
     28 C21        -5.8575    3.4057   -0.4317 C.ar      1 <0>        -0.1180
     29 C22        -4.9294    3.7422   -1.3973 C.ar      1 <0>        -0.1137
     30 C23        -4.0017    4.7376   -1.1497 C.ar      1 <0>        -0.1079
     31 C24        -4.0003    5.3987    0.0646 C.ar      1 <0>        -0.1085
     32 C25        -4.9295    5.0702    1.0325 C.ar      1 <0>        -0.0508
     33 C26        -4.9310    5.7952    2.3537 C.3       1 <0>        -0.1271
     34 C27        -9.4161    4.5423    4.2118 C.3       1 <0>        -0.0753
     35 C28        -8.6376    1.4798    3.9783 C.ar      1 <0>         0.0020
     36 C29        -9.3847    0.4926    3.3377 C.ar      1 <0>        -0.1139
     37 C30        -9.9324   -0.5397    4.0717 C.ar      1 <0>        -0.1166
     38 C31        -9.7498   -0.5905    5.4420 C.ar      1 <0>        -0.1207
     39 C32        -9.0134    0.3891    6.0837 C.ar      1 <0>        -0.1149
     40 C33        -8.4569    1.4235    5.3592 C.ar      1 <0>        -0.1018
     41 H2         -0.4091   -3.8750    3.0304 H         1 <0>         0.0621
     42 H3         -1.7835   -2.9800    2.3387 H         1 <0>         0.0533
     43 H4         -0.1299   -2.6524    1.7672 H         1 <0>         0.0558
     44 H5         -1.2012   -2.0878    4.5690 H         1 <0>         0.0784
     45 H6          0.4658   -1.7869    4.0222 H         1 <0>         0.0757
     46 H7         -1.9236   -0.2200    5.6726 H         1 <0>         0.1277
     47 H8         -1.3851    1.5487    7.2990 H         1 <0>         0.1218
     48 H9          0.1480    3.3712    6.6735 H         1 <0>         0.1215
     49 H10         1.1485    3.4210    4.4241 H         1 <0>         0.1226
     50 H11         0.6166    1.6478    2.8005 H         1 <0>         0.1199
     51 H12        -2.6249    1.3432    0.1541 H         1 <0>         0.0818
     52 H13        -1.2738    1.1491    1.2965 H         1 <0>         0.0819
     53 H14        -1.0237   -1.2314    0.4798 H         1 <0>         0.0789
     54 H15        -2.1257   -1.8166   -1.6630 H         1 <0>         0.0594
     55 H16        -3.3299   -1.4930   -0.3928 H         1 <0>         0.0552
     56 H17        -2.9980   -0.2652   -1.6380 H         1 <0>         0.0559
     57 H18         0.4403    0.5268   -0.3933 H         1 <0>         0.0571
     58 H19        -0.0083   -0.5713   -1.7204 H         1 <0>         0.0617
     59 H20        -0.8007    1.0156   -1.5720 H         1 <0>         0.0581
     60 H21        -4.5632   -0.1402    0.3655 H         1 <0>         0.1134
     61 H22        -4.8291   -0.9606    1.9226 H         1 <0>         0.1179
     62 H23        -6.9556    0.5868    1.4285 H         1 <0>         0.4184
     63 H24        -6.5815    2.6280   -0.6256 H         1 <0>         0.1227
     64 H25        -4.9282    3.2278   -2.3470 H         1 <0>         0.1311
     65 H26        -3.2766    4.9988   -1.9063 H         1 <0>         0.1296
     66 H27        -3.2744    6.1754    0.2552 H         1 <0>         0.1311
     67 H28        -4.2318    5.3104    3.0349 H         1 <0>         0.0709
     68 H29        -4.6292    6.8312    2.1999 H         1 <0>         0.0685
     69 H30        -5.9331    5.7683    2.7818 H         1 <0>         0.0876
     70 H31        -8.9484    4.8114    5.1589 H         1 <0>         0.0812
     71 H32        -9.8465    5.4326    3.7533 H         1 <0>         0.0775
     72 H33       -10.2026    3.8091    4.3903 H         1 <0>         0.0813
     73 H34        -9.5316    0.5336    2.2685 H         1 <0>         0.1171
     74 H35       -10.5083   -1.3072    3.5759 H         1 <0>         0.1223
     75 H36       -10.1835   -1.3981    6.0129 H         1 <0>         0.1212
     76 H37        -8.8741    0.3445    7.1537 H         1 <0>         0.1226
     77 H38        -7.8822    2.1877    5.8613 H         1 <0>         0.1197
@<TRIPOS>BOND
     1    1    2 1
     2    1   41 1
     3    1   42 1
     4    1   43 1
     5    2    3 1
     6    2   44 1
     7    2   45 1
     8    3    4 1
     9    3    5 1
    10    3   11 1
    11    5   10 ar
    12    5    6 ar
    13    6    7 ar
    14    6   46 1
    15    7    8 ar
    16    7   47 1
    17    8    9 ar
    18    8   48 1
    19    9   10 ar
    20    9   49 1
    21   10   50 1
    22   11   12 2
    23   11   13 am
    24   13   14 1
    25   13   18 1
    26   14   15 1
    27   14   51 1
    28   14   52 1
    29   15   16 1
    30   15   17 1
    31   15   53 1
    32   16   54 1
    33   16   55 1
    34   16   56 1
    35   17   57 1
    36   17   58 1
    37   17   59 1
    38   18   19 1
    39   18   60 1
    40   18   61 1
    41   19   20 2
    42   19   21 am
    43   21   22 1
    44   21   62 1
    45   22   26 1
    46   22   23 2
    47   23   24 1
    48   23   35 1
    49   24   25 2
    50   24   34 1
    51   25   26 1
    52   26   27 1
    53   27   32 ar
    54   27   28 ar
    55   28   29 ar
    56   28   63 1
    57   29   30 ar
    58   29   64 1
    59   30   31 ar
    60   30   65 1
    61   31   32 ar
    62   31   66 1
    63   32   33 1
    64   33   67 1
    65   33   68 1
    66   33   69 1
    67   34   70 1
    68   34   71 1
    69   34   72 1
    70   35   40 ar
    71   35   36 ar
    72   36   37 ar
    73   36   73 1
    74   37   38 ar
    75   37   74 1
    76   38   39 ar
    77   38   75 1
    78   39   40 ar
    79   39   76 1
    80   40   77 1
@<TRIPOS>MOLECULE
ZINC35192023
   73    77     0     0     0
SMALL
USER_CHARGES

@<TRIPOS>ATOM
      1 C1          1.4309    2.0482   -1.3933 C.ar      1 <0>        -0.1213
      2 C2          2.5804    2.7221   -1.0255 C.ar      1 <0>        -0.1167
      3 C3          3.7206    2.0143   -0.6943 C.ar      1 <0>        -0.1133
      4 C4          3.7112    0.6324   -0.7305 C.ar      1 <0>        -0.0732
      5 C5          2.5614   -0.0416   -1.0973 C.ar      1 <0>        -0.1170
      6 C6          1.4216    0.6664   -1.4299 C.ar      1 <0>        -0.1178
      7 C7          4.9545   -0.1393   -0.3704 C.3       1 <0>        -0.0025
      8 C8          4.6389   -1.1133    0.7665 C.3       1 <0>        -0.1204
      9 C9          5.9264   -1.8067    1.2163 C.3       1 <0>         0.1240
     10 N1          5.6242   -2.7394    2.3049 N.am      1 <0>        -0.7335
     11 C10         6.6121   -3.4668    2.8629 C.2       1 <0>         0.5071
     12 O1          7.7513   -3.3492    2.4639 O.2       1 <0>        -0.4963
     13 C11         6.3012   -4.4262    3.9827 C.3       1 <0>         0.0940
     14 H1          5.8614   -3.8634    4.8061 H         1 <0>         0.1222
     15 C12         5.2575   -5.4517    3.4756 C.3       1 <0>        -0.0814
     16 S1          6.3681   -6.8833    3.1100 S.3       1 <0>        -0.2450
     17 C13         7.6408   -6.4900    4.3898 C.3       1 <0>         0.2070
     18 H2          7.3815   -6.9354    5.3503 H         1 <0>         0.1075
     19 N2          7.5463   -5.0182    4.4418 N.am      1 <0>        -0.5947
     20 C14         8.5658   -4.2622    4.8953 C.2       1 <0>         0.5908
     21 O2          9.5452   -4.7920    5.3830 O.2       1 <0>        -0.5113
     22 C15         8.4930   -2.7899    4.7998 C.ar      1 <0>        -0.1157
     23 C16         7.2645   -2.1615    4.5847 C.ar      1 <0>        -0.1089
     24 C17         7.2022   -0.7874    4.4964 C.ar      1 <0>        -0.1528
     25 C18         8.3565   -0.0292    4.6202 C.ar      1 <0>         0.1221
     26 C19         9.5788   -0.6480    4.8338 C.ar      1 <0>        -0.1557
     27 C20         9.6515   -2.0211    4.9300 C.ar      1 <0>        -0.0288
     28 F1          8.2901    1.3172    4.5319 F         1 <0>        -0.1344
     29 C21         9.0324   -6.9370    3.9374 C.3       1 <0>        -0.0860
     30 C22         9.4400   -6.1509    2.6897 C.3       1 <0>        -0.1075
     31 C23        10.8316   -6.5979    2.2374 C.3       1 <0>        -0.1161
     32 C24        10.8066   -8.0929    1.9127 C.3       1 <0>        -0.1196
     33 C25        10.3990   -8.8790    3.1604 C.3       1 <0>        -0.1150
     34 C26         9.0074   -8.4320    3.6128 C.3       1 <0>        -0.1132
     35 C27         5.4336   -0.9098   -1.5736 C.ar      1 <0>        -0.0748
     36 C28         4.6134   -1.8553   -2.1603 C.ar      1 <0>        -0.1176
     37 C29         5.0529   -2.5621   -3.2640 C.ar      1 <0>        -0.1173
     38 C30         6.3123   -2.3232   -3.7813 C.ar      1 <0>        -0.1205
     39 C31         7.1322   -1.3771   -3.1950 C.ar      1 <0>        -0.1154
     40 C32         6.6911   -0.6672   -2.0940 C.ar      1 <0>        -0.1127
     41 H3          0.5387    2.6011   -1.6477 H         1 <0>         0.1213
     42 H4          2.5878    3.8017   -0.9973 H         1 <0>         0.1223
     43 H5          4.6190    2.5408   -0.4077 H         1 <0>         0.1216
     44 H6          2.5542   -1.1211   -1.1263 H         1 <0>         0.1242
     45 H7          0.5234    0.1398   -1.7169 H         1 <0>         0.1217
     46 H8          5.7322    0.5538   -0.0495 H         1 <0>         0.0896
     47 H9          4.2090   -0.5658    1.6053 H         1 <0>         0.0775
     48 H10         3.9266   -1.8608    0.4173 H         1 <0>         0.0751
     49 H11         6.3563   -2.3543    0.3775 H         1 <0>         0.0743
     50 H12         6.6387   -1.0592    1.5655 H         1 <0>         0.0699
     51 H13         4.7130   -2.8334    2.6240 H         1 <0>         0.3995
     52 H14         4.5350   -5.6993    4.2534 H         1 <0>         0.1173
     53 H15         4.7589   -5.0966    2.5737 H         1 <0>         0.1272
     54 H16         6.3649   -2.7512    4.4874 H         1 <0>         0.1605
     55 H17         6.2527   -0.3004    4.3301 H         1 <0>         0.1384
     56 H18        10.4750   -0.0528    4.9292 H         1 <0>         0.1430
     57 H19        10.6034   -2.5018    5.1012 H         1 <0>         0.1445
     58 H20         9.7512   -6.7505    4.7353 H         1 <0>         0.1108
     59 H21         8.7213   -6.3375    1.8918 H         1 <0>         0.0675
     60 H22         9.4579   -5.0859    2.9210 H         1 <0>         0.0711
     61 H23        11.1220   -6.0379    1.3485 H         1 <0>         0.0589
     62 H24        11.5504   -6.4114    3.0353 H         1 <0>         0.0601
     63 H25        10.0879   -8.2794    1.1148 H         1 <0>         0.0602
     64 H26        11.7980   -8.4113    1.5905 H         1 <0>         0.0598
     65 H27        10.3812   -9.9440    2.9292 H         1 <0>         0.0630
     66 H28        11.1177   -8.6924    3.9584 H         1 <0>         0.0631
     67 H29         8.7170   -8.9920    4.5017 H         1 <0>         0.0638
     68 H30         8.2886   -8.6185    2.8149 H         1 <0>         0.0675
     69 H31         3.6294   -2.0420   -1.7562 H         1 <0>         0.1239
     70 H32         4.4123   -3.3013   -3.7220 H         1 <0>         0.1208
     71 H33         6.6559   -2.8759   -4.6431 H         1 <0>         0.1207
     72 H34         8.1163   -1.1907   -3.5989 H         1 <0>         0.1217
     73 H35         7.3302    0.0746   -1.6382 H         1 <0>         0.1206
@<TRIPOS>BOND
     1    1    6 ar
     2    1    2 ar
     3    1   41 1
     4    2    3 ar
     5    2   42 1
     6    3    4 ar
     7    3   43 1
     8    4    5 ar
     9    4    7 1
    10    5    6 ar
    11    5   44 1
    12    6   45 1
    13    7    8 1
    14    7   35 1
    15    7   46 1
    16    8    9 1
    17    8   47 1
    18    8   48 1
    19    9   10 1
    20    9   49 1
    21    9   50 1
    22   10   11 am
    23   10   51 1
    24   11   12 2
    25   11   13 1
    26   13   14 1
    27   13   19 1
    28   13   15 1
    29   15   16 1
    30   15   52 1
    31   15   53 1
    32   16   17 1
    33   17   18 1
    34   17   19 1
    35   17   29 1
    36   19   20 am
    37   20   21 2
    38   20   22 1
    39   22   27 ar
    40   22   23 ar
    41   23   24 ar
    42   23   54 1
    43   24   25 ar
    44   24   55 1
    45   25   26 ar
    46   25   28 1
    47   26   27 ar
    48   26   56 1
    49   27   57 1
    50   29   34 1
    51   29   30 1
    52   29   58 1
    53   30   31 1
    54   30   59 1
    55   30   60 1
    56   31   32 1
    57   31   61 1
    58   31   62 1
    59   32   33 1
    60   32   63 1
    61   32   64 1
    62   33   34 1
    63   33   65 1
    64   33   66 1
    65   34   67 1
    66   34   68 1
    67   35   40 ar
    68   35   36 ar
    69   36   37 ar
    70   36   69 1
    71   37   38 ar
    72   37   70 1
    73   38   39 ar
    74   38   71 1
    75   39   40 ar
    76   39   72 1
    77   40   73 1
@<TRIPOS>MOLECULE
ZINC36523447
   82    84     0     0     0
SMALL
USER_CHARGES

@<TRIPOS>ATOM
      1 C1          1.1622   -1.0691   -3.3999 C.3       1 <0>        -0.1591
      2 C2          0.9281   -0.0416   -2.2906 C.3       1 <0>        -0.0691
      3 C3          1.4982    1.3116   -2.7204 C.3       1 <0>        -0.1707
      4 C4         -0.5735    0.0965   -2.0319 C.3       1 <0>        -0.1416
      5 C5          1.6257   -0.5055   -1.0103 C.3       1 <0>        -0.1149
      6 C6          3.1108   -0.1443   -1.0792 C.3       1 <0>         0.1785
      7 C7          3.2846    1.3523   -0.8132 C.3       1 <0>        -0.2103
      8 C8          3.8792   -0.9424   -0.0239 C.3       1 <0>        -0.1592
      9 N1          3.6308   -0.4675   -2.4101 N.am      1 <0>        -0.7182
     10 C9          4.8900   -0.1220   -2.7438 C.2       1 <0>         0.5110
     11 O1          5.5928    0.4564   -1.9422 O.2       1 <0>        -0.5248
     12 C10         5.4249   -0.4544   -4.1130 C.3       1 <0>         0.1715
     13 H1          4.8093    0.0300   -4.8709 H         1 <0>         0.1266
     14 C11         5.3908   -1.9471   -4.3168 C.ar      1 <0>        -0.1636
     15 C12         6.2150   -2.7650   -3.5658 C.ar      1 <0>        -0.0580
     16 C13         6.1862   -4.1333   -3.7501 C.ar      1 <0>        -0.1977
     17 C14         5.3281   -4.6880   -4.6911 C.ar      1 <0>         0.2258
     18 C15         4.5015   -3.8635   -5.4439 C.ar      1 <0>        -0.1957
     19 C16         4.5312   -2.4964   -5.2505 C.ar      1 <0>        -0.0525
     20 N2          5.2968   -6.0715   -4.8804 N.pl3     1 <0>        -0.6362
     21 C17         6.0754   -6.9487   -4.0026 C.3       1 <0>         0.0875
     22 C18         4.4853   -6.6454   -5.9567 C.3       1 <0>         0.0907
     23 N3          6.8053    0.0227   -4.2270 N.am      1 <0>        -0.5807
     24 C19         7.8346   -0.4894   -3.3189 C.3       1 <0>         0.0714
     25 C20         7.1284    0.9326   -5.1673 C.2       1 <0>         0.5713
     26 O2          6.2591    1.4254   -5.8608 O.2       1 <0>        -0.5269
     27 C21         8.5331    1.3299   -5.3550 C.2       1 <0>        -0.1081
     28 C22         9.4017    0.4859   -5.9734 C.2       1 <0>        -0.0514
     29 C23        10.8089    0.8735   -6.1414 C.ar      1 <0>        -0.0682
     30 C24        11.4652    1.5937   -5.1366 C.ar      1 <0>        -0.0931
     31 C25        12.7857    1.9530   -5.3020 C.ar      1 <0>        -0.1213
     32 C26        13.4626    1.6036   -6.4579 C.ar      1 <0>        -0.1104
     33 C27        12.8208    0.8918   -7.4567 C.ar      1 <0>        -0.1236
     34 C28        11.5021    0.5196   -7.3047 C.ar      1 <0>        -0.1004
     35 C29         9.0006    2.6488   -4.8704 C.ar      1 <0>        -0.0358
     36 C30         9.4497    3.6091   -5.7771 C.ar      1 <0>        -0.0896
     37 C31         9.8840    4.8361   -5.3193 C.ar      1 <0>        -0.1159
     38 C32         9.8747    5.1150   -3.9642 C.ar      1 <0>        -0.1152
     39 C33         9.4309    4.1666   -3.0600 C.ar      1 <0>        -0.1161
     40 C34         8.9882    2.9382   -3.5058 C.ar      1 <0>        -0.1128
     41 H2          1.9391   -0.7065   -4.0729 H         1 <0>         0.0597
     42 H3          1.4762   -2.0150   -2.9586 H         1 <0>         0.0617
     43 H4          0.2380   -1.2177   -3.9583 H         1 <0>         0.0664
     44 H5          1.1608    1.5438   -3.7305 H         1 <0>         0.0507
     45 H6          1.1526    2.0856   -2.0350 H         1 <0>         0.0614
     46 H7          2.5872    1.2696   -2.7017 H         1 <0>         0.0889
     47 H8         -0.9796   -0.8676   -1.7258 H         1 <0>         0.0554
     48 H9         -0.7403    0.8285   -1.2417 H         1 <0>         0.0557
     49 H10        -1.0704    0.4270   -2.9440 H         1 <0>         0.0567
     50 H11         1.1715   -0.0132   -0.1503 H         1 <0>         0.0804
     51 H12         1.5187   -1.5855   -0.9091 H         1 <0>         0.0698
     52 H13         3.1903    1.5448    0.2555 H         1 <0>         0.0561
     53 H14         4.2701    1.6698   -1.1540 H         1 <0>         0.0857
     54 H15         2.5173    1.9085   -1.3517 H         1 <0>         0.0920
     55 H16         3.8304   -2.0044   -0.2647 H         1 <0>         0.0532
     56 H17         4.9204   -0.6202   -0.0115 H         1 <0>         0.0715
     57 H18         3.4342   -0.7713    0.9563 H         1 <0>         0.0620
     58 H19         3.0687   -0.9300   -3.0512 H         1 <0>         0.4051
     59 H20         6.8822   -2.3331   -2.8346 H         1 <0>         0.1297
     60 H21         6.8305   -4.7715   -3.1634 H         1 <0>         0.1256
     61 H22         3.8334   -4.2915   -6.1766 H         1 <0>         0.1260
     62 H23         3.8856   -1.8552   -5.8323 H         1 <0>         0.1237
     63 H24         6.5319   -6.3566   -3.2094 H         1 <0>         0.0780
     64 H25         5.4183   -7.6993   -3.5635 H         1 <0>         0.0580
     65 H26         6.8554   -7.4428   -4.5819 H         1 <0>         0.0536
     66 H27         5.0846   -6.7182   -6.8642 H         1 <0>         0.0501
     67 H28         4.1454   -7.6391   -5.6650 H         1 <0>         0.0676
     68 H29         3.6222   -6.0059   -6.1415 H         1 <0>         0.0701
     69 H30         8.2429   -1.4175   -3.7189 H         1 <0>         0.0590
     70 H31         8.6327    0.2467   -3.2223 H         1 <0>         0.0751
     71 H32         7.3942   -0.6783   -2.3400 H         1 <0>         0.0884
     72 H33         9.0571   -0.4694   -6.3410 H         1 <0>         0.1320
     73 H34        10.9384    1.8673   -4.2344 H         1 <0>         0.1300
     74 H35        13.2936    2.5090   -4.5278 H         1 <0>         0.1222
     75 H36        14.4971    1.8882   -6.5812 H         1 <0>         0.1215
     76 H37        13.3559    0.6235   -8.3556 H         1 <0>         0.1234
     77 H38        11.0042   -0.0398   -8.0828 H         1 <0>         0.1239
     78 H39         9.4578    3.3925   -6.8351 H         1 <0>         0.1213
     79 H40        10.2323    5.5803   -6.0202 H         1 <0>         0.1234
     80 H41        10.2157    6.0769   -3.6108 H         1 <0>         0.1223
     81 H42         9.4264    4.3900   -2.0033 H         1 <0>         0.1243
     82 H43         8.6375    2.2004   -2.7993 H         1 <0>         0.1251
@<TRIPOS>BOND
     1    1    2 1
     2    1   41 1
     3    1   42 1
     4    1   43 1
     5    2    3 1
     6    2    4 1
     7    2    5 1
     8    3   44 1
     9    3   45 1
    10    3   46 1
    11    4   47 1
    12    4   48 1
    13    4   49 1
    14    5    6 1
    15    5   50 1
    16    5   51 1
    17    6    7 1
    18    6    8 1
    19    6    9 1
    20    7   52 1
    21    7   53 1
    22    7   54 1
    23    8   55 1
    24    8   56 1
    25    8   57 1
    26    9   10 am
    27    9   58 1
    28   10   11 2
    29   10   12 1
    30   12   13 1
    31   12   14 1
    32   12   23 1
    33   14   19 ar
    34   14   15 ar
    35   15   16 ar
    36   15   59 1
    37   16   17 ar
    38   16   60 1
    39   17   18 ar
    40   17   20 1
    41   18   19 ar
    42   18   61 1
    43   19   62 1
    44   20   21 1
    45   20   22 1
    46   21   63 1
    47   21   64 1
    48   21   65 1
    49   22   66 1
    50   22   67 1
    51   22   68 1
    52   23   24 1
    53   23   25 am
    54   24   69 1
    55   24   70 1
    56   24   71 1
    57   25   26 2
    58   25   27 1
    59   27   28 2
    60   27   35 1
    61   28   29 1
    62   28   72 1
    63   29   34 ar
    64   29   30 ar
    65   30   31 ar
    66   30   73 1
    67   31   32 ar
    68   31   74 1
    69   32   33 ar
    70   32   75 1
    71   33   34 ar
    72   33   76 1
    73   34   77 1
    74   35   40 ar
    75   35   36 ar
    76   36   37 ar
    77   36   78 1
    78   37   38 ar
    79   37   79 1
    80   38   39 ar
    81   38   80 1
    82   39   40 ar
    83   39   81 1
    84   40   82 1
@<TRIPOS>MOLECULE
ZINC36573879
   72    75     0     0     0
SMALL
USER_CHARGES

@<TRIPOS>ATOM
      1 C1         -5.8435   -6.7610   -0.0702 C.3       1 <0>        -0.1536
      2 C2         -4.5207   -6.0434   -0.3465 C.3       1 <0>        -0.1090
      3 C3         -4.6424   -4.5741    0.0627 C.3       1 <0>        -0.1511
      4 C4         -3.3396   -3.8673   -0.2094 C.2       1 <0>         0.5162
      5 O1         -2.3790   -4.4958   -0.6009 O.2       1 <0>        -0.5198
      6 N1         -3.2418   -2.5369   -0.0178 N.am      1 <0>        -0.5919
      7 C5         -2.0119   -1.8319   -0.3873 C.3       1 <0>         0.1059
      8 C6         -2.0554   -1.4758   -1.8746 C.3       1 <0>        -0.1488
      9 C7         -0.7298   -0.8304   -2.2835 C.3       1 <0>        -0.1479
     10 C8         -4.3656   -1.7955    0.5601 C.3       1 <0>         0.1664
     11 H1         -5.2024   -2.4743    0.7246 H         1 <0>         0.1241
     12 C9         -4.7854   -0.7010   -0.3869 C.ar      1 <0>        -0.1178
     13 C10        -3.9387    0.3197   -0.6322 C.ar      1 <0>        -0.0414
     14 C11        -4.2859    1.3704   -1.5125 C.ar      1 <0>        -0.0538
     15 C12        -3.3984    2.4271   -1.7614 C.ar      1 <0>        -0.0866
     16 C13        -3.7593    3.4273   -2.6157 C.ar      1 <0>        -0.1180
     17 C14        -4.9981    3.4161   -3.2458 C.ar      1 <0>        -0.1009
     18 C15        -5.8847    2.4012   -3.0244 C.ar      1 <0>        -0.1131
     19 C16        -5.5444    1.3626   -2.1557 C.ar      1 <0>        -0.0279
     20 C17        -6.4645    0.2537   -1.8887 C.ar      1 <0>        -0.0383
     21 C18        -6.0560   -0.7694   -1.0035 C.ar      1 <0>        -0.0238
     22 C19        -6.9271   -1.8377   -0.7459 C.ar      1 <0>        -0.1262
     23 C20        -8.1472   -1.8781   -1.3542 C.ar      1 <0>        -0.1030
     24 C21        -8.5427   -0.8730   -2.2291 C.ar      1 <0>        -0.1160
     25 C22        -7.7222    0.1869   -2.4914 C.ar      1 <0>        -0.0965
     26 C23        -3.9448   -1.1891    1.8739 C.2       1 <0>         0.5116
     27 O2         -2.7733   -0.9602    2.0886 O.2       1 <0>        -0.5011
     28 N2         -4.8704   -0.9010    2.8103 N.am      1 <0>        -0.7025
     29 C24        -4.4767   -0.2119    4.0417 C.3       1 <0>        -0.3642
     30 S1         -4.7583    1.5702    3.8539 S.o2      1 <0>         2.4690
     31 O3         -4.4364    2.2465    5.0615 O.2       1 <0>        -0.9308
     32 O4         -4.2370    2.0197    2.6108 O.2       1 <0>        -0.9146
     33 C25        -6.5051    1.7384    3.6962 C.ar      1 <0>        -0.6662
     34 C26        -7.1052    1.5882    2.4600 C.ar      1 <0>        -0.0148
     35 C27        -8.4756    1.7202    2.3362 C.ar      1 <0>        -0.1377
     36 C28        -9.2461    2.0020    3.4488 C.ar      1 <0>        -0.0262
     37 C29        -8.6462    2.1513    4.6852 C.ar      1 <0>        -0.1405
     38 C30        -7.2762    2.0151    4.8097 C.ar      1 <0>        -0.0195
     39 C31       -10.7400    2.1469    3.3137 C.3       1 <0>        -0.1269
     40 H2         -5.7568   -7.8077   -0.3617 H         1 <0>         0.0601
     41 H3         -6.0759   -6.6979    0.9929 H         1 <0>         0.0545
     42 H4         -6.6401   -6.2885   -0.6449 H         1 <0>         0.0551
     43 H5         -3.7241   -6.5158    0.2282 H         1 <0>         0.0720
     44 H6         -4.2883   -6.1064   -1.4095 H         1 <0>         0.0705
     45 H7         -5.4390   -4.1017   -0.5120 H         1 <0>         0.0948
     46 H8         -4.8748   -4.5111    1.1258 H         1 <0>         0.0921
     47 H9         -1.9250   -0.9194    0.2024 H         1 <0>         0.0992
     48 H10        -1.1527   -2.4737   -0.1923 H         1 <0>         0.0844
     49 H11        -2.2147   -2.3811   -2.4605 H         1 <0>         0.0639
     50 H12        -2.8714   -0.7767   -2.0571 H         1 <0>         0.0722
     51 H13        -0.5705    0.0749   -1.6977 H         1 <0>         0.0549
     52 H14         0.0863   -1.5296   -2.1010 H         1 <0>         0.0566
     53 H15        -0.7608   -0.5767   -3.3431 H         1 <0>         0.0569
     54 H16        -2.9748    0.3351   -0.1454 H         1 <0>         0.1381
     55 H17        -2.4328    2.4491   -1.2781 H         1 <0>         0.1307
     56 H18        -3.0730    4.2395   -2.8048 H         1 <0>         0.1269
     57 H19        -5.2626    4.2191   -3.9178 H         1 <0>         0.1267
     58 H20        -6.8449    2.4022   -3.5188 H         1 <0>         0.1283
     59 H21        -6.6327   -2.6258   -0.0687 H         1 <0>         0.1239
     60 H22        -8.8152   -2.7027   -1.1536 H         1 <0>         0.1261
     61 H23        -9.5135   -0.9259   -2.6993 H         1 <0>         0.1264
     62 H24        -8.0390    0.9625   -3.1729 H         1 <0>         0.1290
     63 H25        -5.7972   -1.1499    2.6689 H         1 <0>         0.4140
     64 H26        -5.0711   -0.5879    4.8744 H         1 <0>         0.1479
     65 H27        -3.4201   -0.3941    4.2381 H         1 <0>         0.1586
     66 H28        -6.5032    1.3681    1.5907 H         1 <0>         0.1370
     67 H29        -8.9443    1.6036    1.3702 H         1 <0>         0.1323
     68 H30        -9.2481    2.3718    5.5544 H         1 <0>         0.1339
     69 H31        -6.8079    2.1280    5.7763 H         1 <0>         0.1428
     70 H32       -11.2137    1.1757    3.4574 H         1 <0>         0.0805
     71 H33       -11.1069    2.8449    4.0663 H         1 <0>         0.0737
     72 H34       -10.9800    2.5247    2.3199 H         1 <0>         0.0735
@<TRIPOS>BOND
     1    1    2 1
     2    1   40 1
     3    1   41 1
     4    1   42 1
     5    2    3 1
     6    2   43 1
     7    2   44 1
     8    3    4 1
     9    3   45 1
    10    3   46 1
    11    4    5 2
    12    4    6 am
    13    6    7 1
    14    6   10 1
    15    7    8 1
    16    7   47 1
    17    7   48 1
    18    8    9 1
    19    8   49 1
    20    8   50 1
    21    9   51 1
    22    9   52 1
    23    9   53 1
    24   10   11 1
    25   10   12 1
    26   10   26 1
    27   12   21 ar
    28   12   13 ar
    29   13   14 ar
    30   13   54 1
    31   14   19 ar
    32   14   15 ar
    33   15   16 ar
    34   15   55 1
    35   16   17 ar
    36   16   56 1
    37   17   18 ar
    38   17   57 1
    39   18   19 ar
    40   18   58 1
    41   19   20 ar
    42   20   25 ar
    43   20   21 ar
    44   21   22 ar
    45   22   23 ar
    46   22   59 1
    47   23   24 ar
    48   23   60 1
    49   24   25 ar
    50   24   61 1
    51   25   62 1
    52   26   27 2
    53   26   28 am
    54   28   29 1
    55   28   63 1
    56   29   30 1
    57   29   64 1
    58   29   65 1
    59   30   31 2
    60   30   32 2
    61   30   33 1
    62   33   38 ar
    63   33   34 ar
    64   34   35 ar
    65   34   66 1
    66   35   36 ar
    67   35   67 1
    68   36   37 ar
    69   36   39 1
    70   37   38 ar
    71   37   68 1
    72   38   69 1
    73   39   70 1
    74   39   71 1
    75   39   72 1
@<TRIPOS>MOLECULE
ZINC36607111
   77    80     0     0     0
SMALL
USER_CHARGES

@<TRIPOS>ATOM
      1 C1         -1.1084    1.8734   -1.0186 C.3       1 <0>        -0.1525
      2 C2         -0.6536    0.4380   -0.7471 C.3       1 <0>        -0.1208
      3 C3          0.1732   -0.0676   -1.9311 C.3       1 <0>        -0.1312
      4 C4          0.6279   -1.5030   -1.6597 C.3       1 <0>         0.1183
      5 N1          1.4195   -1.9871   -2.7934 N.am      1 <0>        -0.7257
      6 C5          1.9287   -3.2349   -2.7759 C.2       1 <0>         0.5044
      7 O1          1.7315   -3.9569   -1.8216 O.2       1 <0>        -0.5171
      8 C6          2.7430   -3.7328   -3.9421 C.3       1 <0>         0.1349
      9 H1          3.6161   -3.0940   -4.0747 H         1 <0>         0.1299
     10 C7          1.8893   -3.6997   -5.2113 C.3       1 <0>        -0.0168
     11 C8          1.5477   -2.2715   -5.5498 C.ar      1 <0>        -0.0868
     12 C9          2.5568   -1.3583   -5.7923 C.ar      1 <0>        -0.1192
     13 C10         2.2435   -0.0483   -6.1028 C.ar      1 <0>        -0.1141
     14 C11         0.9211    0.3485   -6.1713 C.ar      1 <0>        -0.1140
     15 C12        -0.0880   -0.5648   -5.9297 C.ar      1 <0>        -0.1152
     16 C13         0.2252   -1.8759   -5.6234 C.ar      1 <0>        -0.1038
     17 C14         2.6594   -4.3157   -6.3509 C.ar      1 <0>        -0.0711
     18 C15         3.9677   -3.9361   -6.5860 C.ar      1 <0>        -0.1014
     19 C16         4.6741   -4.5011   -7.6312 C.ar      1 <0>        -0.1121
     20 C17         4.0724   -5.4460   -8.4412 C.ar      1 <0>        -0.1169
     21 C18         2.7644   -5.8262   -8.2055 C.ar      1 <0>        -0.1144
     22 C19         2.0594   -5.2644   -7.1576 C.ar      1 <0>        -0.1152
     23 N2          3.1784   -5.1073   -3.6821 N.am      1 <0>        -0.5458
     24 C20         2.2365   -6.0904   -3.3596 C.ar      1 <0>         0.1448
     25 C21         2.2092   -6.6356   -2.0826 C.ar      1 <0>        -0.0866
     26 C22         1.2779   -7.6055   -1.7672 C.ar      1 <0>        -0.1101
     27 C23         0.3733   -8.0338   -2.7214 C.ar      1 <0>        -0.1153
     28 C24         0.3979   -7.4930   -3.9938 C.ar      1 <0>        -0.1135
     29 C25         1.3233   -6.5190   -4.3140 C.ar      1 <0>        -0.1404
     30 C26         4.4863   -5.4247   -3.7538 C.2       1 <0>         0.5362
     31 O2          5.3112   -4.5570   -3.9479 O.2       1 <0>        -0.5158
     32 C27         4.9238   -6.8578   -3.5926 C.3       1 <0>        -0.0620
     33 H2          4.5089   -7.2627   -2.6696 H         1 <0>         0.1030
     34 C28         4.4226   -7.6807   -4.7811 C.3       1 <0>        -0.1126
     35 C29         4.7617   -9.1561   -4.5590 C.3       1 <0>        -0.1476
     36 C30         6.4284   -6.9205   -3.5370 C.ar      1 <0>        -0.0668
     37 C31         7.1794   -6.4547   -4.6000 C.ar      1 <0>        -0.0802
     38 C32         8.5596   -6.5122   -4.5490 C.ar      1 <0>        -0.1227
     39 C33         9.1889   -7.0350   -3.4347 C.ar      1 <0>        -0.1183
     40 C34         8.4380   -7.4999   -2.3713 C.ar      1 <0>        -0.1227
     41 C35         7.0578   -7.4385   -2.4206 C.ar      1 <0>        -0.1118
     42 H3         -0.2352    2.5122   -1.1512 H         1 <0>         0.0544
     43 H4         -1.7165    1.8970   -1.9228 H         1 <0>         0.0545
     44 H5         -1.6973    2.2336   -0.1751 H         1 <0>         0.0565
     45 H6         -0.0454    0.4144    0.1571 H         1 <0>         0.0648
     46 H7         -1.5267   -0.2009   -0.6145 H         1 <0>         0.0650
     47 H8         -0.4350   -0.0440   -2.8354 H         1 <0>         0.0698
     48 H9          1.0463    0.5713   -2.0637 H         1 <0>         0.0677
     49 H10         1.2361   -1.5266   -0.7554 H         1 <0>         0.0670
     50 H11        -0.2452   -2.1418   -1.5271 H         1 <0>         0.0680
     51 H12         1.5772   -1.4096   -3.5566 H         1 <0>         0.4023
     52 H13         0.9712   -4.2636   -5.0465 H         1 <0>         0.0987
     53 H14         3.5900   -1.6683   -5.7388 H         1 <0>         0.1267
     54 H15         3.0318    0.6654   -6.2915 H         1 <0>         0.1265
     55 H16         0.6763    1.3722   -6.4132 H         1 <0>         0.1250
     56 H17        -1.1212   -0.2548   -5.9829 H         1 <0>         0.1256
     57 H18        -0.5632   -2.5904   -5.4384 H         1 <0>         0.1228
     58 H19         4.4378   -3.1978   -5.9532 H         1 <0>         0.1234
     59 H20         5.6960   -4.2040   -7.8153 H         1 <0>         0.1215
     60 H21         4.6241   -5.8869   -9.2583 H         1 <0>         0.1212
     61 H22         2.2942   -6.5642   -8.8385 H         1 <0>         0.1225
     62 H23         1.0387   -5.5642   -6.9712 H         1 <0>         0.1209
     63 H24         2.9157   -6.3017   -1.3371 H         1 <0>         0.1221
     64 H25         1.2564   -8.0301   -0.7744 H         1 <0>         0.1249
     65 H26        -0.3537   -8.7927   -2.4724 H         1 <0>         0.1231
     66 H27        -0.3099   -7.8296   -4.7368 H         1 <0>         0.1244
     67 H28         1.3393   -6.0940   -5.3067 H         1 <0>         0.1351
     68 H29         3.3426   -7.5660   -4.8729 H         1 <0>         0.0780
     69 H30         4.9041   -7.3307   -5.6942 H         1 <0>         0.0683
     70 H31         4.2802   -9.5061   -3.6459 H         1 <0>         0.0554
     71 H32         4.4047   -9.7423   -5.4058 H         1 <0>         0.0577
     72 H33         5.8418   -9.2708   -4.4673 H         1 <0>         0.0579
     73 H34         6.6877   -6.0462   -5.4705 H         1 <0>         0.1185
     74 H35         9.1463   -6.1490   -5.3798 H         1 <0>         0.1198
     75 H36        10.2672   -7.0806   -3.3952 H         1 <0>         0.1198
     76 H37         8.9296   -7.9087   -1.5009 H         1 <0>         0.1209
     77 H38         6.4712   -7.7983   -1.5882 H         1 <0>         0.1184
@<TRIPOS>BOND
     1    1    2 1
     2    1   42 1
     3    1   43 1
     4    1   44 1
     5    2    3 1
     6    2   45 1
     7    2   46 1
     8    3    4 1
     9    3   47 1
    10    3   48 1
    11    4    5 1
    12    4   49 1
    13    4   50 1
    14    5    6 am
    15    5   51 1
    16    6    7 2
    17    6    8 1
    18    8    9 1
    19    8   10 1
    20    8   23 1
    21   10   11 1
    22   10   17 1
    23   10   52 1
    24   11   16 ar
    25   11   12 ar
    26   12   13 ar
    27   12   53 1
    28   13   14 ar
    29   13   54 1
    30   14   15 ar
    31   14   55 1
    32   15   16 ar
    33   15   56 1
    34   16   57 1
    35   17   22 ar
    36   17   18 ar
    37   18   19 ar
    38   18   58 1
    39   19   20 ar
    40   19   59 1
    41   20   21 ar
    42   20   60 1
    43   21   22 ar
    44   21   61 1
    45   22   62 1
    46   23   24 1
    47   23   30 am
    48   24   29 ar
    49   24   25 ar
    50   25   26 ar
    51   25   63 1
    52   26   27 ar
    53   26   64 1
    54   27   28 ar
    55   27   65 1
    56   28   29 ar
    57   28   66 1
    58   29   67 1
    59   30   31 2
    60   30   32 1
    61   32   33 1
    62   32   34 1
    63   32   36 1
    64   34   35 1
    65   34   68 1
    66   34   69 1
    67   35   70 1
    68   35   71 1
    69   35   72 1
    70   36   41 ar
    71   36   37 ar
    72   37   38 ar
    73   37   73 1
    74   38   39 ar
    75   38   74 1
    76   39   40 ar
    77   39   75 1
    78   40   41 ar
    79   40   76 1
    80   41   77 1
@<TRIPOS>MOLECULE
ZINC22417576
   77    81     0     0     0
SMALL
USER_CHARGES
N-[(2R)-2-(4-dimethylaminophenyl)-2-(4-phenylpiperazin-1-yl)ethyl]-2-ethoxy-naphthalene-1-carboxamide
@<TRIPOS>ATOM
      1 C1          2.6885    8.0288   -0.4082 C.3       1 <0>        -0.1525
      2 C2          2.4957    6.5113   -0.3809 C.3       1 <0>         0.0567
      3 O1          1.1035    6.2099   -0.2670 O.3       1 <0>        -0.3002
      4 C3          0.7586    4.8997   -0.2292 C.ar      1 <0>         0.1796
      5 C4          1.7496    3.9188   -0.3013 C.ar      1 <0>        -0.1952
      6 C5          1.4492    2.5952   -0.2678 C.ar      1 <0>        -0.0441
      7 C6          0.1152    2.1614   -0.1572 C.ar      1 <0>        -0.0859
      8 C7         -0.2058    0.7942   -0.1213 C.ar      1 <0>        -0.0880
      9 C8         -1.5082    0.4102   -0.0142 C.ar      1 <0>        -0.1291
     10 C9         -2.5302    1.3532    0.0554 C.ar      1 <0>        -0.0940
     11 C10        -2.2536    2.6881    0.0283 C.ar      1 <0>        -0.1182
     12 C11        -0.9258    3.1175   -0.0809 C.ar      1 <0>         0.0160
     13 C12        -0.5849    4.5390   -0.1188 C.ar      1 <0>        -0.1787
     14 C13        -1.6346    5.5656   -0.0428 C.2       1 <0>         0.5858
     15 O2         -1.9851    5.9983    1.0389 O.2       1 <0>        -0.5316
     16 N1         -2.2086    6.0274   -1.1714 N.am      1 <0>        -0.7337
     17 C14        -3.2546    7.0504   -1.0956 C.3       1 <0>         0.0979
     18 C15        -3.6208    7.5108   -2.5080 C.3       1 <0>         0.1250
     19 H1         -3.9284    6.6591   -3.1325 H         1 <0>         0.0892
     20 C16        -4.7396    8.5178   -2.4337 C.ar      1 <0>        -0.1247
     21 C17        -4.4778    9.8105   -2.0182 C.ar      1 <0>        -0.0524
     22 C18        -5.4997   10.7373   -1.9545 C.ar      1 <0>        -0.1942
     23 C19        -6.7938   10.3666   -2.2974 C.ar      1 <0>         0.2147
     24 C20        -7.0543    9.0657   -2.7089 C.ar      1 <0>        -0.1934
     25 C21        -6.0267    8.1454   -2.7758 C.ar      1 <0>        -0.0622
     26 N2         -7.8308   11.2997   -2.2282 N.pl3     1 <0>        -0.6390
     27 C22        -9.2132   10.8776   -2.4671 C.3       1 <0>         0.0930
     28 C23        -7.5361   12.7005   -1.9166 C.3       1 <0>         0.0930
     29 N3         -2.4479    8.1280   -3.1414 N.3       1 <0>        -0.5257
     30 C24        -1.7296    7.1570   -3.9786 C.3       1 <0>         0.0545
     31 C25        -0.5641    7.8571   -4.6814 C.3       1 <0>         0.0614
     32 N4          0.3310    8.4434   -3.6741 N.pl3     1 <0>        -0.4834
     33 C26        -0.3873    9.4144   -2.8369 C.3       1 <0>         0.0550
     34 C27        -1.5528    8.7143   -2.1341 C.3       1 <0>         0.0357
     35 C28         1.4463    9.0302   -4.2764 C.ar      1 <0>         0.1155
     36 C29         1.7380   10.3687   -4.0466 C.ar      1 <0>        -0.1707
     37 C30         2.8442   10.9445   -4.6399 C.ar      1 <0>        -0.0930
     38 C31         3.6552   10.1928   -5.4703 C.ar      1 <0>        -0.1476
     39 C32         3.3647    8.8614   -5.7054 C.ar      1 <0>        -0.0954
     40 C33         2.2630    8.2780   -5.1111 C.ar      1 <0>        -0.1412
     41 H2          3.7602    8.2607   -0.4959 H         1 <0>         0.0779
     42 H3          2.2937    8.4653    0.5211 H         1 <0>         0.0646
     43 H4          2.1502    8.4513   -1.2694 H         1 <0>         0.0726
     44 H5          2.8905    6.0748   -1.3102 H         1 <0>         0.0650
     45 H6          3.0340    6.0887    0.4803 H         1 <0>         0.0618
     46 H7          2.7829    4.2211   -0.3860 H         1 <0>         0.1350
     47 H8          2.2440    1.8662   -0.3261 H         1 <0>         0.1346
     48 H9          0.5762    0.0514   -0.1781 H         1 <0>         0.1300
     49 H10        -1.7521   -0.6415    0.0128 H         1 <0>         0.1258
     50 H11        -3.5553    1.0230    0.1355 H         1 <0>         0.1262
     51 H12        -3.0547    3.4100    0.0875 H         1 <0>         0.1239
     52 H13        -1.8917    5.6362   -2.1494 H         1 <0>         0.4157
     53 H14        -4.1445    6.6293   -0.6049 H         1 <0>         0.0711
     54 H15        -2.8868    7.9085   -0.5140 H         1 <0>         0.0802
     55 H16        -3.4723   10.0967   -1.7472 H         1 <0>         0.1232
     56 H17        -5.2938   11.7479   -1.6341 H         1 <0>         0.1185
     57 H18        -8.0593    8.7741   -2.9759 H         1 <0>         0.1195
     58 H19        -6.2286    7.1337   -3.0954 H         1 <0>         0.1187
     59 H20        -9.8833   11.7445   -2.3699 H         1 <0>         0.0733
     60 H21        -9.4953   10.1116   -1.7297 H         1 <0>         0.0542
     61 H22        -9.2989   10.4597   -3.4810 H         1 <0>         0.0539
     62 H23        -8.4719   13.2786   -1.9066 H         1 <0>         0.0734
     63 H24        -6.8593   13.1114   -2.6802 H         1 <0>         0.0541
     64 H25        -7.0558   12.7632   -0.9290 H         1 <0>         0.0541
     65 H26        -1.3430    6.3436   -3.3470 H         1 <0>         0.0422
     66 H27        -2.4168    6.7422   -4.7308 H         1 <0>         0.0880
     67 H28        -0.0080    7.1257   -5.2862 H         1 <0>         0.0862
     68 H29        -0.9538    8.6521   -5.3342 H         1 <0>         0.0550
     69 H30         0.2999    9.8292   -2.0847 H         1 <0>         0.0845
     70 H31        -0.7739   10.2278   -3.4684 H         1 <0>         0.0533
     71 H32        -2.1099    9.4451   -1.5295 H         1 <0>         0.0862
     72 H33        -1.1641    7.9187   -1.4814 H         1 <0>         0.0701
     73 H34         1.1025   10.9575   -3.4016 H         1 <0>         0.1250
     74 H35         3.0739   11.9840   -4.4584 H         1 <0>         0.1204
     75 H36         4.5175   10.6465   -5.9361 H         1 <0>         0.1194
     76 H37         4.0003    8.2771   -6.3543 H         1 <0>         0.1218
     77 H38         2.0365    7.2382   -5.2954 H         1 <0>         0.1217
@<TRIPOS>BOND
     1    1    2 1
     2    1   41 1
     3    1   42 1
     4    1   43 1
     5    2    3 1
     6    2   44 1
     7    2   45 1
     8    3    4 1
     9    4   13 ar
    10    4    5 ar
    11    5    6 ar
    12    5   46 1
    13    6    7 ar
    14    6   47 1
    15    7   12 ar
    16    7    8 ar
    17    8    9 ar
    18    8   48 1
    19    9   10 ar
    20    9   49 1
    21   10   11 ar
    22   10   50 1
    23   11   12 ar
    24   11   51 1
    25   12   13 ar
    26   13   14 1
    27   14   15 2
    28   14   16 am
    29   16   17 1
    30   16   52 1
    31   17   18 1
    32   17   53 1
    33   17   54 1
    34   18   19 1
    35   18   20 1
    36   18   29 1
    37   20   25 ar
    38   20   21 ar
    39   21   22 ar
    40   21   55 1
    41   22   23 ar
    42   22   56 1
    43   23   24 ar
    44   23   26 1
    45   24   25 ar
    46   24   57 1
    47   25   58 1
    48   26   27 1
    49   26   28 1
    50   27   59 1
    51   27   60 1
    52   27   61 1
    53   28   62 1
    54   28   63 1
    55   28   64 1
    56   29   34 1
    57   29   30 1
    58   30   31 1
    59   30   65 1
    60   30   66 1
    61   31   32 1
    62   31   67 1
    63   31   68 1
    64   32   33 1
    65   32   35 1
    66   33   34 1
    67   33   69 1
    68   33   70 1
    69   34   71 1
    70   34   72 1
    71   35   40 ar
    72   35   36 ar
    73   36   37 ar
    74   36   73 1
    75   37   38 ar
    76   37   74 1
    77   38   39 ar
    78   38   75 1
    79   39   40 ar
    80   39   76 1
    81   40   77 1
@<TRIPOS>MOLECULE
ZINC36493950
   69    72     0     0     0
SMALL
USER_CHARGES

@<TRIPOS>ATOM
      1 C1         -0.4648   -3.9414   -2.6560 C.3       1 <0>        -0.1611
      2 C2         -0.8344   -2.4575   -2.7041 C.3       1 <0>         0.1719
      3 C3         -0.8866   -1.9918   -4.1606 C.3       1 <0>        -0.1620
      4 C4         -2.2038   -2.2516   -2.0535 C.3       1 <0>        -0.1567
      5 N1          0.1729   -1.6796   -1.9785 N.am      1 <0>        -0.7241
      6 C5          1.4605   -1.7075   -2.3756 C.2       1 <0>         0.5232
      7 O1          1.7853   -2.3765   -3.3336 O.2       1 <0>        -0.5028
      8 C6          2.4967   -0.9073   -1.6292 C.3       1 <0>         0.1719
      9 H1          2.3280    0.1558   -1.8011 H         1 <0>         0.1257
     10 C7          2.3917   -1.2006   -0.1548 C.ar      1 <0>        -0.0879
     11 C8          3.4246   -1.8491    0.4960 C.ar      1 <0>        -0.0773
     12 C9          3.3289   -2.1184    1.8482 C.ar      1 <0>        -0.1046
     13 C10         2.1990   -1.7387    2.5506 C.ar      1 <0>        -0.0288
     14 C11         1.1656   -1.0897    1.8988 C.ar      1 <0>        -0.1033
     15 C12         1.2649   -0.8159    0.5477 C.ar      1 <0>        -0.1055
     16 Cl1         2.0778   -2.0771    4.2490 Cl        1 <0>        -0.0654
     17 N2          3.8328   -1.2730   -2.1059 N.am      1 <0>        -0.5871
     18 C13         4.7140   -0.2491   -2.6728 C.3       1 <0>         0.1730
     19 C14         4.2275    0.1265   -4.0488 C.2       1 <0>        -0.0302
     20 C15         3.4328    1.1707   -4.3443 C.2       1 <0>        -0.1971
     21 C16         3.2287    1.1471   -5.7431 C.2       1 <0>        -0.2152
     22 C17         3.9109    0.0899   -6.2187 C.2       1 <0>        -0.0286
     23 O2          4.5187   -0.5212   -5.1887 O.3       1 <0>        -0.1636
     24 C18         4.2513   -2.5515   -2.0230 C.2       1 <0>         0.5761
     25 O3          3.4974   -3.4127   -1.6112 O.2       1 <0>        -0.4994
     26 C19         5.6205   -2.9055   -2.4308 C.2       1 <0>        -0.1443
     27 C20         5.8322   -3.9706   -3.2494 C.2       1 <0>        -0.0075
     28 C21         7.1947   -4.4814   -3.4526 C.ar      1 <0>        -0.0760
     29 C22         8.1408   -4.3906   -2.4252 C.ar      1 <0>        -0.0858
     30 C23         9.4169   -4.8729   -2.6240 C.ar      1 <0>        -0.1233
     31 C24         9.7635   -5.4457   -3.8356 C.ar      1 <0>        -0.1062
     32 C25         8.8339   -5.5390   -4.8570 C.ar      1 <0>        -0.1245
     33 C26         7.5519   -5.0669   -4.6727 C.ar      1 <0>        -0.0960
     34 C27         6.7675   -2.1019   -1.9496 C.ar      1 <0>        -0.0414
     35 C28         6.8680   -1.7628   -0.6002 C.ar      1 <0>        -0.1205
     36 C29         7.9391   -1.0138   -0.1580 C.ar      1 <0>        -0.1111
     37 C30         8.9122   -0.5993   -1.0499 C.ar      1 <0>        -0.1137
     38 C31         8.8179   -0.9321   -2.3895 C.ar      1 <0>        -0.1115
     39 C32         7.7549   -1.6859   -2.8428 C.ar      1 <0>        -0.0977
     40 H2          0.5108   -4.0881   -3.1195 H         1 <0>         0.0792
     41 H3         -0.4277   -4.2731   -1.6184 H         1 <0>         0.0534
     42 H4         -1.2143   -4.5202   -3.1959 H         1 <0>         0.0600
     43 H5         -1.6360   -2.5706   -4.7005 H         1 <0>         0.0623
     44 H6         -1.1499   -0.9347   -4.1949 H         1 <0>         0.0525
     45 H7          0.0890   -2.1385   -4.6241 H         1 <0>         0.0768
     46 H8         -2.1666   -2.5833   -1.0159 H         1 <0>         0.0623
     47 H9         -2.4671   -1.1945   -2.0878 H         1 <0>         0.0613
     48 H10        -2.9533   -2.8304   -2.5934 H         1 <0>         0.0747
     49 H11        -0.0869   -1.1445   -1.2123 H         1 <0>         0.3940
     50 H12         4.3064   -2.1458   -0.0525 H         1 <0>         0.1333
     51 H13         4.1358   -2.6254    2.3564 H         1 <0>         0.1347
     52 H14         0.2832   -0.7934    2.4465 H         1 <0>         0.1383
     53 H15         0.4602   -0.3050    0.0398 H         1 <0>         0.1302
     54 H16         4.7063    0.6323   -2.0316 H         1 <0>         0.1078
     55 H17         5.7291   -0.6404   -2.7405 H         1 <0>         0.1237
     56 H18         3.0277    1.8889   -3.6468 H         1 <0>         0.1450
     57 H19         2.6380    1.8440   -6.3192 H         1 <0>         0.1473
     58 H20         3.9642   -0.2137   -7.2538 H         1 <0>         0.2010
     59 H21         4.9988   -4.4409   -3.7501 H         1 <0>         0.1357
     60 H22         7.8720   -3.9437   -1.4795 H         1 <0>         0.1280
     61 H23        10.1483   -4.8032   -1.8324 H         1 <0>         0.1231
     62 H24        10.7649   -5.8215   -3.9849 H         1 <0>         0.1226
     63 H25         9.1126   -5.9870   -5.7994 H         1 <0>         0.1247
     64 H26         6.8264   -5.1448   -5.4690 H         1 <0>         0.1256
     65 H27         6.1088   -2.0854    0.0969 H         1 <0>         0.1206
     66 H28         8.0178   -0.7502    0.8863 H         1 <0>         0.1257
     67 H29         9.7487   -0.0132   -0.6990 H         1 <0>         0.1242
     68 H30         9.5805   -0.6053   -3.0809 H         1 <0>         0.1253
     69 H31         7.6849   -1.9491   -3.8879 H         1 <0>         0.1250
@<TRIPOS>BOND
     1    1    2 1
     2    1   40 1
     3    1   41 1
     4    1   42 1
     5    2    3 1
     6    2    4 1
     7    2    5 1
     8    3   43 1
     9    3   44 1
    10    3   45 1
    11    4   46 1
    12    4   47 1
    13    4   48 1
    14    5    6 am
    15    5   49 1
    16    6    7 2
    17    6    8 1
    18    8    9 1
    19    8   10 1
    20    8   17 1
    21   10   15 ar
    22   10   11 ar
    23   11   12 ar
    24   11   50 1
    25   12   13 ar
    26   12   51 1
    27   13   14 ar
    28   13   16 1
    29   14   15 ar
    30   14   52 1
    31   15   53 1
    32   17   18 1
    33   17   24 am
    34   18   19 1
    35   18   54 1
    36   18   55 1
    37   19   23 1
    38   19   20 2
    39   20   21 1
    40   20   56 1
    41   21   22 2
    42   21   57 1
    43   22   23 1
    44   22   58 1
    45   24   25 2
    46   24   26 1
    47   26   27 2
    48   26   34 1
    49   27   28 1
    50   27   59 1
    51   28   33 ar
    52   28   29 ar
    53   29   30 ar
    54   29   60 1
    55   30   31 ar
    56   30   61 1
    57   31   32 ar
    58   31   62 1
    59   32   33 ar
    60   32   63 1
    61   33   64 1
    62   34   39 ar
    63   34   35 ar
    64   35   36 ar
    65   35   65 1
    66   36   37 ar
    67   36   66 1
    68   37   38 ar
    69   37   67 1
    70   38   39 ar
    71   38   68 1
    72   39   69 1
@<TRIPOS>MOLECULE
ZINC36597963
   61    63     0     0     0
SMALL
USER_CHARGES

@<TRIPOS>ATOM
      1 C1          1.1591    1.0795    1.6508 C.3       1 <0>        -0.0741
      2 C2          0.8853   -0.3281    1.1875 C.2       1 <0>        -0.0183
      3 C3         -0.3304   -0.8818    1.0297 C.2       1 <0>        -0.2175
      4 C4         -0.1220   -2.2071    0.5832 C.2       1 <0>        -0.2189
      5 C5          1.2085   -2.3839    0.4950 C.2       1 <0>        -0.0042
      6 O1          1.8135   -1.2407    0.8567 O.3       1 <0>        -0.1273
      7 C6          1.9025   -3.6485    0.0589 C.3       1 <0>         0.1777
      8 N1          1.9012   -3.7267   -1.4040 N.am      1 <0>        -0.5933
      9 C7          3.0416   -3.2120   -2.1661 C.3       1 <0>         0.1733
     10 H1          2.6798   -2.6676   -3.0384 H         1 <0>         0.1167
     11 C8          3.9062   -4.3619   -2.6146 C.ar      1 <0>        -0.0943
     12 C9          4.2351   -5.3673   -1.7245 C.ar      1 <0>        -0.0840
     13 C10         5.0280   -6.4222   -2.1353 C.ar      1 <0>        -0.1080
     14 C11         5.4925   -6.4719   -3.4376 C.ar      1 <0>        -0.0257
     15 C12         5.1630   -5.4655   -4.3279 C.ar      1 <0>        -0.1065
     16 C13         4.3654   -4.4140   -3.9175 C.ar      1 <0>        -0.0840
     17 Cl1         6.4889   -7.7964   -3.9541 Cl        1 <0>        -0.0656
     18 C14         3.8504   -2.2852   -1.2955 C.2       1 <0>         0.5158
     19 O2          3.5423   -2.1213   -0.1340 O.2       1 <0>        -0.4988
     20 N2          4.9162   -1.6384   -1.8077 N.am      1 <0>        -0.7121
     21 C15         5.7024   -0.7374   -0.9613 C.3       1 <0>         0.1728
     22 C16         6.2781   -1.5205    0.2203 C.3       1 <0>        -0.1625
     23 C17         6.8463   -0.1367   -1.7808 C.3       1 <0>        -0.1577
     24 C18         4.8041    0.3858   -0.4397 C.3       1 <0>        -0.1659
     25 C19         0.8508   -4.2720   -2.0488 C.2       1 <0>         0.5295
     26 O3          0.8497   -4.3367   -3.2599 O.2       1 <0>        -0.5109
     27 C20        -0.3223   -4.8015   -1.2648 C.3       1 <0>        -0.1172
     28 C21        -1.3534   -5.3536   -2.2151 C.ar      1 <0>        -0.0489
     29 C22        -2.4055   -4.5593   -2.6313 C.ar      1 <0>        -0.0906
     30 C23        -3.3517   -5.0649   -3.5028 C.ar      1 <0>        -0.0998
     31 C24        -3.2473   -6.3658   -3.9589 C.ar      1 <0>        -0.0976
     32 C25        -2.1955   -7.1619   -3.5436 C.ar      1 <0>        -0.0299
     33 C26        -1.2441   -6.6533   -2.6752 C.ar      1 <0>        -0.0153
     34 Cl2         0.0812   -7.6488   -2.1590 Cl        1 <0>        -0.0447
     35 Cl3        -2.0639   -8.7955   -4.1160 Cl        1 <0>        -0.0470
     36 H2          2.2354    1.2500    1.6786 H         1 <0>         0.0738
     37 H3          0.6972    1.7855    0.9607 H         1 <0>         0.0813
     38 H4          0.7429    1.2212    2.6482 H         1 <0>         0.0830
     39 H5         -1.2828   -0.4057    1.2099 H         1 <0>         0.1422
     40 H6         -0.8848   -2.9374    0.3569 H         1 <0>         0.1446
     41 H7          2.9304   -3.6424    0.4215 H         1 <0>         0.1340
     42 H8          1.3776   -4.5111    0.4693 H         1 <0>         0.0928
     43 H9          3.8727   -5.3281   -0.7079 H         1 <0>         0.1291
     44 H10         5.2852   -7.2074   -1.4398 H         1 <0>         0.1349
     45 H11         5.5256   -5.5037   -5.3445 H         1 <0>         0.1369
     46 H12         4.1041   -3.6308   -4.6137 H         1 <0>         0.1341
     47 H13         5.1626   -1.7695   -2.7366 H         1 <0>         0.3996
     48 H14         6.9181   -2.3207   -0.1513 H         1 <0>         0.0536
     49 H15         6.8631   -0.8502    0.8500 H         1 <0>         0.0632
     50 H16         5.4631   -1.9485    0.8041 H         1 <0>         0.0792
     51 H17         6.4362    0.4212   -2.6226 H         1 <0>         0.0622
     52 H18         7.4313    0.5337   -1.1511 H         1 <0>         0.0753
     53 H19         7.4863   -0.9369   -2.1524 H         1 <0>         0.0627
     54 H20         3.9891   -0.0422    0.1441 H         1 <0>         0.0857
     55 H21         5.3891    1.0562    0.1900 H         1 <0>         0.0623
     56 H22         4.3940    0.9437   -1.2815 H         1 <0>         0.0515
     57 H23         0.0154   -5.5926   -0.5953 H         1 <0>         0.1119
     58 H24        -0.7627   -3.9939   -0.6800 H         1 <0>         0.1201
     59 H25        -2.4884   -3.5431   -2.2750 H         1 <0>         0.1369
     60 H26        -4.1733   -4.4435   -3.8274 H         1 <0>         0.1408
     61 H27        -3.9874   -6.7605   -4.6393 H         1 <0>         0.1434
@<TRIPOS>BOND
     1    1    2 1
     2    1   36 1
     3    1   37 1
     4    1   38 1
     5    2    6 1
     6    2    3 2
     7    3    4 1
     8    3   39 1
     9    4    5 2
    10    4   40 1
    11    5    6 1
    12    5    7 1
    13    7    8 1
    14    7   41 1
    15    7   42 1
    16    8    9 1
    17    8   25 am
    18    9   10 1
    19    9   11 1
    20    9   18 1
    21   11   16 ar
    22   11   12 ar
    23   12   13 ar
    24   12   43 1
    25   13   14 ar
    26   13   44 1
    27   14   15 ar
    28   14   17 1
    29   15   16 ar
    30   15   45 1
    31   16   46 1
    32   18   19 2
    33   18   20 am
    34   20   21 1
    35   20   47 1
    36   21   22 1
    37   21   23 1
    38   21   24 1
    39   22   48 1
    40   22   49 1
    41   22   50 1
    42   23   51 1
    43   23   52 1
    44   23   53 1
    45   24   54 1
    46   24   55 1
    47   24   56 1
    48   25   26 2
    49   25   27 1
    50   27   28 1
    51   27   57 1
    52   27   58 1
    53   28   33 ar
    54   28   29 ar
    55   29   30 ar
    56   29   59 1
    57   30   31 ar
    58   30   60 1
    59   31   32 ar
    60   31   61 1
    61   32   33 ar
    62   32   35 1
    63   33   34 1
@<TRIPOS>MOLECULE
ZINC40280893
   64    67     0     0     0
SMALL
USER_CHARGES

@<TRIPOS>ATOM
      1 C1         -0.0187    1.5258    0.0104 C.3       1 <0>        -0.1396
      2 C2          0.0021   -0.0041    0.0020 C.3       1 <0>        -0.0266
      3 C3          0.7421   -0.5109    1.2415 C.3       1 <0>        -0.1394
      4 C4         -1.4333   -0.5336    0.0129 C.3       1 <0>        -0.1463
      5 C5          0.7074   -0.4901   -1.2379 C.ar      1 <0>        -0.1047
      6 C6          0.0348   -1.2844   -2.1480 C.ar      1 <0>        -0.0808
      7 C7          0.6793   -1.7316   -3.2851 C.ar      1 <0>        -0.1477
      8 C8          2.0024   -1.3826   -3.5137 C.ar      1 <0>         0.1233
      9 C9          2.6750   -0.5851   -2.5992 C.ar      1 <0>        -0.2054
     10 C10         2.0244   -0.1362   -1.4662 C.ar      1 <0>        -0.0751
     11 O1          2.6388   -1.8216   -4.6314 O.3       1 <0>        -0.3132
     12 C11         4.0005   -1.4231   -4.8014 C.3       1 <0>         0.0651
     13 C12         4.5442   -2.0089   -6.1061 C.3       1 <0>        -0.1390
     14 C13         6.0022   -1.5822   -6.2881 C.3       1 <0>         0.1123
     15 N1          6.5228   -2.1430   -7.5374 N.pl3     1 <0>        -0.4795
     16 C14         7.1428   -3.3672   -7.6890 C.ar      1 <0>         0.0564
     17 C15         7.4668   -4.4010   -6.8209 C.ar      1 <0>        -0.1129
     18 C16         8.1044   -5.5237   -7.3039 C.ar      1 <0>        -0.0930
     19 C17         8.4243   -5.6263   -8.6504 C.ar      1 <0>        -0.1269
     20 C18         8.1137   -4.6189   -9.5191 C.ar      1 <0>        -0.0581
     21 C19         7.4665   -3.4717   -9.0523 C.ar      1 <0>         0.0425
     22 N2          7.0366   -2.3306   -9.6495 N.2       1 <0>        -0.4647
     23 C20         6.4796   -1.5567   -8.7642 C.2       1 <0>         0.2569
     24 C21         5.8777   -0.2060   -9.0547 C.3       1 <0>         0.2015
     25 N3          6.9045    0.8283   -8.9067 N.am      1 <0>        -0.7231
     26 C22         6.5931    2.1223   -9.1190 C.2       1 <0>         0.5642
     27 O2          5.4602    2.4311   -9.4333 O.2       1 <0>        -0.5227
     28 C23         7.6291    3.1659   -8.9697 C.ar      1 <0>        -0.1218
     29 C24         8.9324    2.8137   -8.6144 C.ar      1 <0>        -0.0797
     30 C25         9.8947    3.7920   -8.4766 C.ar      1 <0>        -0.0973
     31 C26         9.5702    5.1212   -8.6898 C.ar      1 <0>        -0.0660
     32 C27         8.2792    5.4768   -9.0424 C.ar      1 <0>        -0.0969
     33 C28         7.3095    4.5071   -9.1889 C.ar      1 <0>        -0.0504
     34 Br1        10.8955    6.4564   -8.4981 Br        1 <0>        -0.0371
     35 H1          1.0039    1.9031    0.0027 H         1 <0>         0.0557
     36 H2         -0.5459    1.8868   -0.8726 H         1 <0>         0.0567
     37 H3         -0.5289    1.8773    0.9072 H         1 <0>         0.0591
     38 H4          0.2319   -0.1594    2.1383 H         1 <0>         0.0590
     39 H5          0.7568   -1.6008    1.2356 H         1 <0>         0.0564
     40 H6          1.7647   -0.1336    1.2338 H         1 <0>         0.0556
     41 H7         -1.9605   -0.1726   -0.8702 H         1 <0>         0.0592
     42 H8         -1.4185   -1.6235    0.0069 H         1 <0>         0.0590
     43 H9         -1.9435   -0.1821    0.9097 H         1 <0>         0.0594
     44 H10        -0.9952   -1.5559   -1.9695 H         1 <0>         0.1341
     45 H11         0.1538   -2.3527   -3.9953 H         1 <0>         0.1301
     46 H12         3.7050   -0.3120   -2.7749 H         1 <0>         0.1254
     47 H13         2.5462    0.4883   -0.7562 H         1 <0>         0.1236
     48 H14         4.0588   -0.3353   -4.8394 H         1 <0>         0.0667
     49 H15         4.5937   -1.7897   -3.9636 H         1 <0>         0.0661
     50 H16         4.4860   -3.0966   -6.0681 H         1 <0>         0.0853
     51 H17         3.9511   -1.6423   -6.9439 H         1 <0>         0.0847
     52 H18         6.0604   -0.4944   -6.3262 H         1 <0>         0.0985
     53 H19         6.5954   -1.9487   -5.4503 H         1 <0>         0.0984
     54 H20         7.2207   -4.3259   -5.7720 H         1 <0>         0.1227
     55 H21         8.3571   -6.3288   -6.6298 H         1 <0>         0.1324
     56 H22         8.9242   -6.5115   -9.0151 H         1 <0>         0.1321
     57 H23         8.3679   -4.7088  -10.5649 H         1 <0>         0.1314
     58 H24         5.4919   -0.1919  -10.0741 H         1 <0>         0.1103
     59 H25         5.0640   -0.0129   -8.3557 H         1 <0>         0.0928
     60 H26         7.8085    0.5819   -8.6559 H         1 <0>         0.4042
     61 H27         9.1865    1.7774   -8.4475 H         1 <0>         0.1335
     62 H28        10.9032    3.5209   -8.2014 H         1 <0>         0.1413
     63 H29         8.0321    6.5151   -9.2071 H         1 <0>         0.1433
     64 H30         6.3040    4.7851   -9.4683 H         1 <0>         0.1484
@<TRIPOS>BOND
     1    1    2 1
     2    1   35 1
     3    1   36 1
     4    1   37 1
     5    2    3 1
     6    2    4 1
     7    2    5 1
     8    3   38 1
     9    3   39 1
    10    3   40 1
    11    4   41 1
    12    4   42 1
    13    4   43 1
    14    5   10 ar
    15    5    6 ar
    16    6    7 ar
    17    6   44 1
    18    7    8 ar
    19    7   45 1
    20    8    9 ar
    21    8   11 1
    22    9   10 ar
    23    9   46 1
    24   10   47 1
    25   11   12 1
    26   12   13 1
    27   12   48 1
    28   12   49 1
    29   13   14 1
    30   13   50 1
    31   13   51 1
    32   14   15 1
    33   14   52 1
    34   14   53 1
    35   15   23 1
    36   15   16 1
    37   16   21 ar
    38   16   17 ar
    39   17   18 ar
    40   17   54 1
    41   18   19 ar
    42   18   55 1
    43   19   20 ar
    44   19   56 1
    45   20   21 ar
    46   20   57 1
    47   21   22 1
    48   22   23 2
    49   23   24 1
    50   24   25 1
    51   24   58 1
    52   24   59 1
    53   25   26 am
    54   25   60 1
    55   26   27 2
    56   26   28 1
    57   28   33 ar
    58   28   29 ar
    59   29   30 ar
    60   29   61 1
    61   30   31 ar
    62   30   62 1
    63   31   32 ar
    64   31   34 1
    65   32   33 ar
    66   32   63 1
    67   33   64 1
@<TRIPOS>MOLECULE
ZINC58966583
   63    66     0     0     0
SMALL
USER_CHARGES

@<TRIPOS>ATOM
      1 C1         -0.0187    1.5258    0.0104 C.3       1 <0>        -0.1483
      2 C2          0.0021   -0.0041    0.0020 C.3       1 <0>        -0.0916
      3 C3          0.7074   -0.4901   -1.2379 C.ar      1 <0>        -0.0523
      4 C4         -0.0135   -0.7177   -2.3962 C.ar      1 <0>        -0.1253
      5 C5          0.6271   -1.1628   -3.5347 C.ar      1 <0>        -0.0590
      6 C6          2.0034   -1.3825   -3.5158 C.ar      1 <0>        -0.0776
      7 C7          2.7248   -1.1510   -2.3460 C.ar      1 <0>        -0.0806
      8 C8          2.0743   -0.7014   -1.2149 C.ar      1 <0>        -0.1227
      9 C9          2.6975   -1.8612   -4.7359 C.ar      1 <0>         0.2562
     10 C10         4.0763   -2.0896   -4.7243 C.ar      1 <0>        -0.1874
     11 C11         4.6805   -2.5359   -5.8862 C.ar      1 <0>         0.1132
     12 N1          3.9412   -2.7321   -6.9664 N.ar      1 <0>        -0.4952
     13 C12         2.6348   -2.5074   -6.9491 C.ar      1 <0>         0.3152
     14 N2          2.0161   -2.0851   -5.8568 N.ar      1 <0>        -0.4779
     15 S1          1.6966   -2.7838   -8.4147 S.3       1 <0>         0.0287
     16 C13         2.9263   -3.3486   -9.6229 C.3       1 <0>        -0.1005
     17 C14         2.2366   -3.6286  -10.9596 C.3       1 <0>        -0.1230
     18 C15         3.2581   -4.0978  -11.9633 C.2       1 <0>         0.5301
     19 O1          4.4232   -4.1982  -11.6412 O.2       1 <0>        -0.5040
     20 N3          2.8772   -4.4057  -13.2189 N.am      1 <0>        -0.6348
     21 C16         3.8272   -4.8420  -14.1524 C.2       1 <0>         0.2926
     22 C17         5.2010   -5.0085  -13.9147 C.2       1 <0>        -0.2661
     23 C18         5.7710   -5.4421  -15.0619 C.2       1 <0>         0.0625
     24 N4          4.7995   -5.5475  -15.9929 N.pl3     1 <0>        -0.3608
     25 N5          3.5874   -5.1717  -15.3997 N.2       1 <0>        -0.3113
     26 C19         4.9800   -5.9842  -17.3796 C.3       1 <0>         0.1801
     27 C20         4.0547   -7.1384  -17.6672 C.ar      1 <0>        -0.1186
     28 C21         4.4766   -8.4353  -17.4416 C.ar      1 <0>        -0.0947
     29 C22         3.6279   -9.4940  -17.7055 C.ar      1 <0>        -0.1255
     30 C23         2.3571   -9.2558  -18.1946 C.ar      1 <0>        -0.0740
     31 C24         1.9349   -7.9588  -18.4193 C.ar      1 <0>        -0.1250
     32 C25         2.7821   -6.8999  -18.1514 C.ar      1 <0>        -0.0779
     33 C26         1.4322  -10.4100  -18.4832 C.3       1 <0>        -0.1185
     34 C27         6.1645   -2.7954   -5.9216 C.3       1 <0>         0.5258
     35 F1          6.4143   -4.1241   -5.5619 F         1 <0>        -0.1630
     36 F2          6.6478   -2.5634   -7.2138 F         1 <0>        -0.1559
     37 F3          6.8092   -1.9397   -5.0219 F         1 <0>        -0.1645
     38 H1          1.0039    1.9031    0.0027 H         1 <0>         0.0570
     39 H2         -0.5459    1.8868   -0.8726 H         1 <0>         0.0572
     40 H3         -0.5289    1.8773    0.9072 H         1 <0>         0.0612
     41 H4          0.5293   -0.3651    0.8851 H         1 <0>         0.0759
     42 H5         -1.0205   -0.3814    0.0098 H         1 <0>         0.0761
     43 H6         -1.0799   -0.5472   -2.4097 H         1 <0>         0.1306
     44 H7          0.0631   -1.3409   -4.4383 H         1 <0>         0.1389
     45 H8          3.7913   -1.3199   -2.3256 H         1 <0>         0.1302
     46 H9          2.6329   -0.5177   -0.3090 H         1 <0>         0.1313
     47 H10         4.6567   -1.9213   -3.8292 H         1 <0>         0.1652
     48 H11         3.6830   -2.5760   -9.7593 H         1 <0>         0.1086
     49 H12         3.3997   -4.2609   -9.2601 H         1 <0>         0.1078
     50 H13         1.4799   -4.4012  -10.8232 H         1 <0>         0.1128
     51 H14         1.7632   -2.7163  -11.3224 H         1 <0>         0.1131
     52 H15         1.9455   -4.3254  -13.4765 H         1 <0>         0.4166
     53 H16         5.7118   -4.8233  -12.9814 H         1 <0>         0.1715
     54 H17         6.8179   -5.6642  -15.2075 H         1 <0>         0.1773
     55 H18         4.7512   -5.1584  -18.0532 H         1 <0>         0.0932
     56 H19         6.0124   -6.3000  -17.5295 H         1 <0>         0.1069
     57 H20         5.4695   -8.6214  -17.0595 H         1 <0>         0.1212
     58 H21         3.9578  -10.5073  -17.5299 H         1 <0>         0.1233
     59 H22         0.9421   -7.7727  -18.8018 H         1 <0>         0.1238
     60 H23         2.4509   -5.8864  -18.3235 H         1 <0>         0.1239
     61 H24         0.8485  -10.6396  -17.5917 H         1 <0>         0.0722
     62 H25         0.7602  -10.1421  -19.2985 H         1 <0>         0.0681
     63 H26         2.0189  -11.2833  -18.7681 H         1 <0>         0.0677
@<TRIPOS>BOND
     1    1    2 1
     2    1   38 1
     3    1   39 1
     4    1   40 1
     5    2    3 1
     6    2   41 1
     7    2   42 1
     8    3    8 ar
     9    3    4 ar
    10    4    5 ar
    11    4   43 1
    12    5    6 ar
    13    5   44 1
    14    6    7 ar
    15    6    9 1
    16    7    8 ar
    17    7   45 1
    18    8   46 1
    19    9   14 ar
    20    9   10 ar
    21   10   11 ar
    22   10   47 1
    23   11   12 ar
    24   11   34 1
    25   12   13 ar
    26   13   14 ar
    27   13   15 1
    28   15   16 1
    29   16   17 1
    30   16   48 1
    31   16   49 1
    32   17   18 1
    33   17   50 1
    34   17   51 1
    35   18   19 2
    36   18   20 am
    37   20   21 1
    38   20   52 1
    39   21   25 2
    40   21   22 1
    41   22   23 2
    42   22   53 1
    43   23   24 1
    44   23   54 1
    45   24   25 1
    46   24   26 1
    47   26   27 1
    48   26   55 1
    49   26   56 1
    50   27   32 ar
    51   27   28 ar
    52   28   29 ar
    53   28   57 1
    54   29   30 ar
    55   29   58 1
    56   30   31 ar
    57   30   33 1
    58   31   32 ar
    59   31   59 1
    60   32   60 1
    61   33   61 1
    62   33   62 1
    63   33   63 1
    64   34   35 1
    65   34   36 1
    66   34   37 1
@<TRIPOS>MOLECULE
ZINC09323918
   47    49     0     0     0
SMALL
USER_CHARGES
2-[[5-(p-tolylcarbamoylamino)-1,3,4-thiadiazol-2-yl]sulfanyl]-N-[2-(trifluoromethyl)phenyl]-acetamide
@<TRIPOS>ATOM
      1 C1        -14.4222    8.5172   -1.2875 C.3       1 <0>        -0.1154
      2 C2        -14.0611    7.0602   -1.1536 C.ar      1 <0>        -0.0966
      3 C3        -12.8152    6.6181   -1.5592 C.ar      1 <0>        -0.0994
      4 C4        -12.4813    5.2835   -1.4383 C.ar      1 <0>        -0.1129
      5 C5        -13.3982    4.3852   -0.9082 C.ar      1 <0>         0.1505
      6 C6        -14.6502    4.8315   -0.5062 C.ar      1 <0>        -0.1368
      7 C7        -14.9761    6.1683   -0.6250 C.ar      1 <0>        -0.1009
      8 N1        -13.0631    3.0322   -0.7847 N.am      1 <0>        -0.6732
      9 C8        -11.7942    2.6750   -0.5043 C.2       1 <0>         0.7004
     10 O1        -10.9613    3.5279   -0.2649 O.2       1 <0>        -0.5044
     11 N2        -11.4484    1.3724   -0.4892 N.am      1 <0>        -0.6192
     12 C9        -10.1369    1.0033   -0.1993 C.2       1 <0>         0.3252
     13 N3         -9.0983    1.7641    0.0834 N.2       1 <0>        -0.2892
     14 N4         -7.8762    1.1872    0.3410 N.2       1 <0>        -0.2839
     15 C10        -7.7498   -0.1262    0.3038 C.2       1 <0>         0.0309
     16 S1         -9.4115   -0.6271   -0.1190 S.3       1 <0>         0.0438
     17 S2         -6.3223   -1.1193    0.5876 S.3       1 <0>         0.1441
     18 C11        -5.0162    0.0847    0.9554 C.3       1 <0>        -0.1667
     19 C12        -3.7232   -0.6423    1.2213 C.2       1 <0>         0.5446
     20 O2         -3.6864   -1.8534    1.1679 O.2       1 <0>        -0.4916
     21 N5         -2.6078    0.0534    1.5184 N.am      1 <0>        -0.6651
     22 C13        -1.3839   -0.6112    1.6533 C.ar      1 <0>         0.2006
     23 C14        -1.2125   -1.8732    1.0992 C.ar      1 <0>        -0.1417
     24 C15        -0.0035   -2.5267    1.2345 C.ar      1 <0>        -0.0618
     25 C16         1.0362   -1.9256    1.9204 C.ar      1 <0>        -0.1380
     26 C17         0.8705   -0.6672    2.4686 C.ar      1 <0>        -0.0494
     27 C18        -0.3382   -0.0107    2.3417 C.ar      1 <0>        -0.2197
     28 C19        -0.5198    1.3585    2.9446 C.3       1 <0>         0.5075
     29 F1          0.6632    1.7483    3.5814 F         1 <0>        -0.1702
     30 F2         -0.8296    2.2755    1.9344 F         1 <0>        -0.1782
     31 F3         -1.5617    1.3229    3.8775 F         1 <0>        -0.1746
     32 H1        -14.8793    8.6902   -2.2618 H         1 <0>         0.0712
     33 H2        -15.1268    8.7905   -0.5020 H         1 <0>         0.0669
     34 H3        -13.5219    9.1246   -1.1955 H         1 <0>         0.0672
     35 H4        -12.1026    7.3172   -1.9714 H         1 <0>         0.1272
     36 H5        -11.5081    4.9388   -1.7553 H         1 <0>         0.1353
     37 H6        -15.3671    4.1345   -0.0978 H         1 <0>         0.1271
     38 H7        -15.9481    6.5168   -0.3084 H         1 <0>         0.1282
     39 H8        -13.7442    2.3513   -0.9010 H         1 <0>         0.4107
     40 H9        -12.1128    0.6920   -0.6801 H         1 <0>         0.4278
     41 H10        -5.2944    0.6650    1.8352 H         1 <0>         0.1372
     42 H11        -4.8886    0.7537    0.1044 H         1 <0>         0.1383
     43 H12        -2.6535    1.0148    1.6388 H         1 <0>         0.4169
     44 H13        -2.0238   -2.3429    0.5629 H         1 <0>         0.1663
     45 H14         0.1303   -3.5081    0.8038 H         1 <0>         0.1390
     46 H15         1.9810   -2.4385    2.0242 H         1 <0>         0.1382
     47 H16         1.6857   -0.1986    2.9998 H         1 <0>         0.1439
@<TRIPOS>BOND
     1    1    2 1
     2    1   32 1
     3    1   33 1
     4    1   34 1
     5    2    7 ar
     6    2    3 ar
     7    3    4 ar
     8    3   35 1
     9    4    5 ar
    10    4   36 1
    11    5    6 ar
    12    5    8 1
    13    6    7 ar
    14    6   37 1
    15    7   38 1
    16    8    9 am
    17    8   39 1
    18    9   10 2
    19    9   11 am
    20   11   12 1
    21   11   40 1
    22   12   16 1
    23   12   13 2
    24   13   14 1
    25   14   15 2
    26   15   16 1
    27   15   17 1
    28   17   18 1
    29   18   19 1
    30   18   41 1
    31   18   42 1
    32   19   20 2
    33   19   21 am
    34   21   22 1
    35   21   43 1
    36   22   27 ar
    37   22   23 ar
    38   23   24 ar
    39   23   44 1
    40   24   25 ar
    41   24   45 1
    42   25   26 ar
    43   25   46 1
    44   26   27 ar
    45   26   47 1
    46   27   28 1
    47   28   29 1
    48   28   30 1
    49   28   31 1
@<TRIPOS>MOLECULE
ZINC14579125
   68    70     0     0     0
SMALL
USER_CHARGES
N-(6-amino-1-benzyl-2,4-dioxo-pyrimidin-5-yl)-4-tert-butyl-N-isopentyl-benzamide
@<TRIPOS>ATOM
      1 C1          1.1788    6.8748    0.5210 C.3       1 <0>        -0.1481
      2 C2          1.6286    5.4629    0.9016 C.3       1 <0>        -0.0941
      3 C3          2.3930    5.5109    2.2261 C.3       1 <0>        -0.1471
      4 C4          0.4024    4.5604    1.0528 C.3       1 <0>        -0.1267
      5 C5         -0.2782    4.3926   -0.3072 C.3       1 <0>         0.1064
      6 N1         -1.5077    3.6128   -0.1450 N.am      1 <0>        -0.5211
      7 C6         -2.7449    4.2712    0.0110 C.2       1 <0>        -0.1466
      8 C7         -3.1857    5.1712   -0.9380 C.2       1 <0>         0.4670
      9 N2         -4.3987    5.7948   -0.7596 N.am      1 <0>        -0.5328
     10 C8         -5.1426    5.5374    0.3314 C.2       1 <0>         0.7118
     11 O1         -6.2102    6.1022    0.4727 O.2       1 <0>        -0.5286
     12 N3         -4.7272    4.6672    1.2688 N.am      1 <0>        -0.6620
     13 H1         -5.2993    4.4937    2.0704 H         1 <0>         0.4411
     14 C9         -3.5489    4.0264    1.1403 C.2       1 <0>         0.5671
     15 O2         -3.1817    3.2393    1.9962 O.2       1 <0>        -0.4998
     16 C10        -4.8811    6.7489   -1.7612 C.3       1 <0>         0.1477
     17 C11        -4.3960    8.1322   -1.4119 C.ar      1 <0>        -0.1287
     18 C12        -5.1647    8.9513   -0.6062 C.ar      1 <0>        -0.0856
     19 C13        -4.7174   10.2185   -0.2818 C.ar      1 <0>        -0.1192
     20 C14        -3.5063   10.6704   -0.7716 C.ar      1 <0>        -0.1037
     21 C15        -2.7400    9.8532   -1.5816 C.ar      1 <0>        -0.1194
     22 C16        -3.1849    8.5842   -1.9017 C.ar      1 <0>        -0.1039
     23 N4         -2.4237    5.4379   -2.0502 N.pl3     1 <0>        -0.8328
     24 C17        -1.4564    2.2660   -0.1450 C.2       1 <0>         0.5763
     25 O3         -0.3816    1.6985   -0.1842 O.2       1 <0>        -0.5250
     26 C18        -2.7066    1.4787   -0.0973 C.ar      1 <0>        -0.1154
     27 C19        -3.9132    2.0543   -0.4988 C.ar      1 <0>        -0.1007
     28 C20        -5.0772    1.3157   -0.4469 C.ar      1 <0>        -0.1306
     29 C21        -5.0506    0.0074    0.0027 C.ar      1 <0>        -0.0440
     30 C22        -3.8580   -0.5691    0.4021 C.ar      1 <0>        -0.1213
     31 C23        -2.6867    0.1582    0.3548 C.ar      1 <0>        -0.0551
     32 C24        -6.3261   -0.7932    0.0571 C.3       1 <0>        -0.0333
     33 C25        -6.5906   -1.2338    1.4982 C.3       1 <0>        -0.1393
     34 C26        -7.4907    0.0688   -0.4345 C.3       1 <0>        -0.1445
     35 C27        -6.1922   -2.0274   -0.8371 C.3       1 <0>        -0.1392
     36 H2          0.5709    6.8313   -0.3827 H         1 <0>         0.0515
     37 H3          0.5908    7.3005    1.3342 H         1 <0>         0.0536
     38 H4          2.0541    7.4987    0.3403 H         1 <0>         0.0552
     39 H5          2.2781    5.0658    0.1215 H         1 <0>         0.0720
     40 H6          2.7135    4.5049    2.4973 H         1 <0>         0.0560
     41 H7          3.2665    6.1538    2.1184 H         1 <0>         0.0552
     42 H8          1.7435    5.9080    3.0063 H         1 <0>         0.0536
     43 H9         -0.2971    5.0126    1.7559 H         1 <0>         0.0648
     44 H10         0.7133    3.5847    1.4263 H         1 <0>         0.0732
     45 H11         0.3949    3.8724   -0.9886 H         1 <0>         0.0880
     46 H12        -0.5213    5.3737   -0.7152 H         1 <0>         0.0802
     47 H13        -4.5011    6.4679   -2.7434 H         1 <0>         0.1013
     48 H14        -5.9710    6.7393   -1.7769 H         1 <0>         0.1232
     49 H15        -6.1130    8.5999   -0.2272 H         1 <0>         0.1334
     50 H16        -5.3162   10.8570    0.3506 H         1 <0>         0.1272
     51 H17        -3.1589   11.6620   -0.5218 H         1 <0>         0.1260
     52 H18        -1.7940   10.2064   -1.9645 H         1 <0>         0.1264
     53 H19        -2.5864    7.9459   -2.5347 H         1 <0>         0.1160
     54 H20        -1.6083    4.9377   -2.2108 H         1 <0>         0.4263
     55 H21        -2.7013    6.1263   -2.6746 H         1 <0>         0.4068
     56 H22        -3.9355    3.0756   -0.8493 H         1 <0>         0.1300
     57 H23        -6.0114    1.7597   -0.7576 H         1 <0>         0.1260
     58 H24        -3.8440   -1.5908    0.7520 H         1 <0>         0.1268
     59 H25        -1.7563   -0.2931    0.6665 H         1 <0>         0.1312
     60 H26        -6.6861   -0.3545    2.1353 H         1 <0>         0.0573
     61 H27        -7.5132   -1.8129    1.5376 H         1 <0>         0.0601
     62 H28        -5.7610   -1.8479    1.8485 H         1 <0>         0.0584
     63 H29        -7.3023    0.3827   -1.4612 H         1 <0>         0.0580
     64 H30        -8.4133   -0.5103   -0.3951 H         1 <0>         0.0602
     65 H31        -7.5862    0.9481    0.2026 H         1 <0>         0.0584
     66 H32        -5.3625   -2.6415   -0.4869 H         1 <0>         0.0585
     67 H33        -7.1148   -2.6065   -0.7977 H         1 <0>         0.0603
     68 H34        -6.0037   -1.7135   -1.8638 H         1 <0>         0.0565
@<TRIPOS>BOND
     1    1    2 1
     2    1   36 1
     3    1   37 1
     4    1   38 1
     5    2    3 1
     6    2    4 1
     7    2   39 1
     8    3   40 1
     9    3   41 1
    10    3   42 1
    11    4    5 1
    12    4   43 1
    13    4   44 1
    14    5    6 1
    15    5   45 1
    16    5   46 1
    17    6    7 1
    18    6   24 am
    19    7   14 1
    20    7    8 2
    21    8    9 1
    22    8   23 1
    23    9   10 am
    24    9   16 1
    25   10   11 2
    26   10   12 am
    27   12   13 1
    28   12   14 am
    29   14   15 2
    30   16   17 1
    31   16   47 1
    32   16   48 1
    33   17   22 ar
    34   17   18 ar
    35   18   19 ar
    36   18   49 1
    37   19   20 ar
    38   19   50 1
    39   20   21 ar
    40   20   51 1
    41   21   22 ar
    42   21   52 1
    43   22   53 1
    44   23   54 1
    45   23   55 1
    46   24   25 2
    47   24   26 1
    48   26   31 ar
    49   26   27 ar
    50   27   28 ar
    51   27   56 1
    52   28   29 ar
    53   28   57 1
    54   29   30 ar
    55   29   32 1
    56   30   31 ar
    57   30   58 1
    58   31   59 1
    59   32   33 1
    60   32   34 1
    61   32   35 1
    62   33   60 1
    63   33   61 1
    64   33   62 1
    65   34   63 1
    66   34   64 1
    67   34   65 1
    68   35   66 1
    69   35   67 1
    70   35   68 1
@<TRIPOS>MOLECULE
ZINC33320705
   54    57     0     0     0
SMALL
USER_CHARGES
2-[[6-[(3,5-dimethylphenyl)carbamoylamino]-1,3-benzothiazol-2-yl]sulfanyl]-N-(2-furylmethyl)acetamide
@<TRIPOS>ATOM
      1 C1         11.9639    3.3549    0.8497 C.3       1 <0>        -0.1167
      2 C2         10.5810    3.0881    1.3857 C.ar      1 <0>        -0.0635
      3 C3         10.4097    2.2370    2.4620 C.ar      1 <0>        -0.1366
      4 C4          9.1425    1.9903    2.9574 C.ar      1 <0>        -0.0630
      5 C5          8.0434    2.5936    2.3781 C.ar      1 <0>        -0.1272
      6 C6          8.2120    3.4485    1.2968 C.ar      1 <0>         0.1706
      7 C7          9.4854    3.6897    0.7980 C.ar      1 <0>        -0.1536
      8 N1          7.1005    4.0610    0.7073 N.am      1 <0>        -0.6923
      9 C8          5.9288    3.3995    0.6296 C.2       1 <0>         0.7071
     10 O1          5.8134    2.3046    1.1457 O.2       1 <0>        -0.5573
     11 N2          4.8850    3.9516   -0.0202 N.am      1 <0>        -0.6909
     12 C9          3.6392    3.3095   -0.0181 C.ar      1 <0>         0.1899
     13 C10         2.4624    4.0540    0.0059 C.ar      1 <0>        -0.1308
     14 C11         1.2338    3.4479    0.0085 C.ar      1 <0>        -0.0412
     15 C12         1.1211    2.0385   -0.0143 C.ar      1 <0>         0.0669
     16 C13         2.3337    1.3133   -0.0384 C.ar      1 <0>        -0.1256
     17 C14         3.5628    1.9231   -0.0404 C.ar      1 <0>        -0.0687
     18 S1          1.7681   -0.3709   -0.0613 S.3       1 <0>         0.0547
     19 C15         0.0158   -0.0204   -0.0384 C.2       1 <0>         0.0935
     20 N3         -0.0071    1.2930   -0.0159 N.2       1 <0>        -0.5021
     21 S2         -1.3371   -1.1492   -0.0451 S.3       1 <0>         0.1265
     22 C16        -2.7203    0.0177   -0.0120 C.3       1 <0>        -0.1603
     23 C17        -4.0205   -0.7443   -0.0129 C.2       1 <0>         0.5368
     24 O2         -4.0127   -1.9569   -0.0339 O.2       1 <0>        -0.5249
     25 N4         -5.1919   -0.0782    0.0096 N.am      1 <0>        -0.7320
     26 C18        -6.4558   -0.8190    0.0087 C.3       1 <0>         0.2055
     27 C19        -7.6075    0.1526    0.0362 C.2       1 <0>        -0.0424
     28 C20        -8.2189    0.6786   -1.0403 C.2       1 <0>        -0.1792
     29 C21        -9.2365    1.5328   -0.5568 C.2       1 <0>        -0.2185
     30 C22        -9.1861    1.4777    0.7863 C.2       1 <0>        -0.0248
     31 O3         -8.2013    0.6357    1.1398 O.3       1 <0>        -0.1715
     32 C23         8.9605    1.0625    4.1309 C.3       1 <0>        -0.1179
     33 H1         12.7012    2.7925    1.4413 H         1 <0>         0.0672
     34 H2         12.1824    4.4308    0.9183 H         1 <0>         0.0706
     35 H3         12.0174    3.0361   -0.2017 H         1 <0>         0.0703
     36 H4         11.2676    1.7643    2.9170 H         1 <0>         0.1223
     37 H5          7.0540    2.4011    2.7659 H         1 <0>         0.1390
     38 H6          9.6193    4.3505   -0.0456 H         1 <0>         0.1238
     39 H7          7.1830    5.0824    0.3073 H         1 <0>         0.4311
     40 H8          5.0109    4.9061   -0.5522 H         1 <0>         0.4356
     41 H9          2.5196    5.1324    0.0233 H         1 <0>         0.1387
     42 H10         0.3402    4.0541    0.0274 H         1 <0>         0.1380
     43 H11         4.4646    1.3290   -0.0588 H         1 <0>         0.1514
     44 H12        -2.6576    0.6349    0.8964 H         1 <0>         0.1304
     45 H13        -2.6745    0.6659   -0.8996 H         1 <0>         0.1306
     46 H14        -5.1990    1.0216    0.0286 H         1 <0>         0.4305
     47 H15        -6.5184   -1.4362   -0.8997 H         1 <0>         0.1026
     48 H16        -6.5016   -1.4672    0.8963 H         1 <0>         0.0884
     49 H17        -7.9783    0.4859   -2.0753 H         1 <0>         0.1515
     50 H18        -9.9225    2.1176   -1.1517 H         1 <0>         0.1519
     51 H19        -9.8315    2.0153    1.4651 H         1 <0>         0.2062
     52 H20         7.8914    0.9913    4.3797 H         1 <0>         0.0666
     53 H21         9.5133    1.4545    4.9974 H         1 <0>         0.0710
     54 H22         9.3440    0.0645    3.8722 H         1 <0>         0.0717
@<TRIPOS>BOND
     1    1    2 1
     2    1   33 1
     3    1   34 1
     4    1   35 1
     5    2    7 ar
     6    2    3 ar
     7    3    4 ar
     8    3   36 1
     9    4    5 ar
    10    4   32 1
    11    5    6 ar
    12    5   37 1
    13    6    7 ar
    14    6    8 1
    15    7   38 1
    16    8    9 am
    17    8   39 1
    18    9   10 2
    19    9   11 am
    20   11   12 1
    21   11   40 1
    22   12   17 ar
    23   12   13 ar
    24   13   14 ar
    25   13   41 1
    26   14   15 ar
    27   14   42 1
    28   15   20 1
    29   15   16 ar
    30   16   17 ar
    31   16   18 1
    32   17   43 1
    33   18   19 1
    34   19   20 2
    35   19   21 1
    36   21   22 1
    37   22   23 1
    38   22   44 1
    39   22   45 1
    40   23   24 2
    41   23   25 am
    42   25   26 1
    43   25   46 1
    44   26   27 1
    45   26   47 1
    46   26   48 1
    47   27   31 1
    48   27   28 2
    49   28   29 1
    50   28   49 1
    51   29   30 2
    52   29   50 1
    53   30   31 1
    54   30   51 1
    55   32   52 1
    56   32   53 1
    57   32   54 1
@<TRIPOS>MOLECULE
ZINC40981616
   56    59     0     0     0
SMALL
USER_CHARGES

@<TRIPOS>ATOM
      1 C1          1.0942    1.5138    0.5246 C.3       1 <0>        -0.1459
      2 C2          0.9919   -0.0116    0.4642 C.3       1 <0>        -0.1103
      3 C3          1.5042   -0.5038   -0.8908 C.3       1 <0>        -0.1051
      4 S1          1.3830   -2.3123   -0.9625 S.3       1 <0>         0.0154
      5 C4          2.0021   -2.7181   -2.5614 C.2       1 <0>         0.2180
      6 N1          2.4520   -1.8386   -3.4685 N.2       1 <0>        -0.5469
      7 C5          2.8369   -2.4763   -4.5404 C.2       1 <0>         0.5055
      8 N2          2.6325   -3.8013   -4.3387 N.pl3     1 <0>        -0.3799
      9 N3          2.1029   -3.9331   -3.0559 N.2       1 <0>        -0.2649
     10 C6          2.9390   -4.8267   -5.3326 C.3       1 <0>         0.2852
     11 H1          3.4983   -5.6345   -4.8608 H         1 <0>         0.1117
     12 C7          3.7645   -4.2232   -6.4374 C.2       1 <0>        -0.2868
     13 C8          3.9351   -2.9015   -6.5853 C.2       1 <0>         0.2073
     14 N4          3.3732   -1.9903   -5.7250 N.pl3     1 <0>        -0.6117
     15 C9          4.7715   -2.3991   -7.7338 C.3       1 <0>        -0.1324
     16 C10         4.3902   -5.0916   -7.3631 C.2       1 <0>         0.5958
     17 O1          5.3720   -5.7307   -7.0306 O.2       1 <0>        -0.5329
     18 N5          3.8996   -5.2113   -8.6126 N.am      1 <0>        -0.8447
     19 C11         1.6556   -5.3716   -5.9045 C.ar      1 <0>        -0.1428
     20 C12         0.7792   -4.5272   -6.5609 C.ar      1 <0>        -0.0529
     21 C13        -0.3982   -5.0241   -7.0856 C.ar      1 <0>        -0.1498
     22 C14        -0.7006   -6.3716   -6.9539 C.ar      1 <0>         0.1442
     23 C15         0.1806   -7.2169   -6.2953 C.ar      1 <0>        -0.2058
     24 C16         1.3591   -6.7160   -5.7769 C.ar      1 <0>        -0.0474
     25 O2         -1.8584   -6.8628   -7.4689 O.3       1 <0>        -0.3063
     26 C17        -2.1042   -8.2598   -7.2960 C.3       1 <0>         0.1004
     27 C18        -3.4246   -8.6195   -7.9270 C.ar      1 <0>        -0.0948
     28 C19        -4.5873   -8.5528   -7.1822 C.ar      1 <0>        -0.0809
     29 C20        -5.7986   -8.8826   -7.7604 C.ar      1 <0>        -0.1129
     30 C21        -5.8473   -9.2794   -9.0849 C.ar      1 <0>        -0.0239
     31 C22        -4.6834   -9.3460   -9.8298 C.ar      1 <0>        -0.1134
     32 C23        -3.4734   -9.0105   -9.2521 C.ar      1 <0>        -0.0813
     33 Cl1        -7.3683   -9.6943   -9.8116 Cl        1 <0>        -0.0637
     34 H2          2.1346    1.8135    0.3989 H         1 <0>         0.0579
     35 H3          0.4916    1.9502   -0.2719 H         1 <0>         0.0578
     36 H4          0.7292    1.8645    1.4900 H         1 <0>         0.0630
     37 H5          1.5945   -0.4480    1.2608 H         1 <0>         0.0743
     38 H6         -0.0485   -0.3113    0.5900 H         1 <0>         0.0742
     39 H7          0.9016   -0.0674   -1.6874 H         1 <0>         0.0927
     40 H8          2.5447   -0.2041   -1.0166 H         1 <0>         0.0930
     41 H9          3.3518   -1.0440   -5.9370 H         1 <0>         0.4398
     42 H10         4.1530   -2.3244   -8.6283 H         1 <0>         0.0968
     43 H11         5.1742   -1.4167   -7.4875 H         1 <0>         0.0877
     44 H12         5.5921   -3.0929   -7.9164 H         1 <0>         0.0954
     45 H13         3.1176   -4.7022   -8.8775 H         1 <0>         0.4023
     46 H14         4.3285   -5.8066   -9.2471 H         1 <0>         0.4052
     47 H15         1.0151   -3.4783   -6.6631 H         1 <0>         0.1190
     48 H16        -1.0827   -4.3641   -7.5976 H         1 <0>         0.1333
     49 H17        -0.0527   -8.2662   -6.1915 H         1 <0>         0.1331
     50 H18         2.0475   -7.3744   -5.2680 H         1 <0>         0.1297
     51 H19        -1.3067   -8.8307   -7.7716 H         1 <0>         0.0762
     52 H20        -2.1341   -8.4945   -6.2319 H         1 <0>         0.0762
     53 H21        -4.5491   -8.2434   -6.1482 H         1 <0>         0.1353
     54 H22        -6.7068   -8.8308   -7.1783 H         1 <0>         0.1382
     55 H23        -4.7208   -9.6560  -10.8637 H         1 <0>         0.1380
     56 H24        -2.5653   -9.0578   -9.8348 H         1 <0>         0.1349
@<TRIPOS>BOND
     1    1    2 1
     2    1   34 1
     3    1   35 1
     4    1   36 1
     5    2    3 1
     6    2   37 1
     7    2   38 1
     8    3    4 1
     9    3   39 1
    10    3   40 1
    11    4    5 1
    12    5    9 2
    13    5    6 1
    14    6    7 2
    15    7   14 1
    16    7    8 1
    17    8    9 1
    18    8   10 1
    19   10   11 1
    20   10   12 1
    21   10   19 1
    22   12   13 2
    23   12   16 1
    24   13   14 1
    25   13   15 1
    26   14   41 1
    27   15   42 1
    28   15   43 1
    29   15   44 1
    30   16   17 2
    31   16   18 am
    32   18   45 1
    33   18   46 1
    34   19   24 ar
    35   19   20 ar
    36   20   21 ar
    37   20   47 1
    38   21   22 ar
    39   21   48 1
    40   22   23 ar
    41   22   25 1
    42   23   24 ar
    43   23   49 1
    44   24   50 1
    45   25   26 1
    46   26   27 1
    47   26   51 1
    48   26   52 1
    49   27   32 ar
    50   27   28 ar
    51   28   29 ar
    52   28   53 1
    53   29   30 ar
    54   29   54 1
    55   30   31 ar
    56   30   33 1
    57   31   32 ar
    58   31   55 1
    59   32   56 1
