@<TRIPOS>MOLECULE
1Q4X-G24
 51 53 0 0 0
SMALL
SF_CHARGES


@<TRIPOS>ATOM
1    C        12.2610   25.0350   41.9740  C.2        1 SUBUNIT     -0.0986
2    C        11.8490   23.9260   41.2090  C.2        1 SUBUNIT     -0.0986
3    C        10.4950   23.5450   41.1850  C.2        1 SUBUNIT     -0.0992
4    C         9.5510   24.2760   41.9330  C.2        1 SUBUNIT     -0.0986
5    C         9.9600   25.3880   42.7010  C.2        1 SUBUNIT     -0.0986
6    C        11.3220   25.7660   42.7210  C.2        1 SUBUNIT     -0.0409
7    C        11.7900   26.9620   43.5630  C.3        1 SUBUNIT     -0.0004
8    C        12.0580   26.4560   44.9790  C.2        1 SUBUNIT     -0.0542
9    C        13.3650   26.0290   45.2950  C.2        1 SUBUNIT     -0.1068
10   C        11.0620   26.3660   45.9430  C.2        1 SUBUNIT      0.1540
11   O         9.8160   26.8060   45.6220  O.3        1 SUBUNIT     -0.5083
12   C        11.3450   25.8400   47.2250  C.2        1 SUBUNIT     -0.1166
13   C        12.6590   25.4070   47.5420  C.2        1 SUBUNIT     -0.1058
14   C        13.6730   25.5050   46.5700  C.2        1 SUBUNIT     -0.0402
15   C        15.1510   25.1080   46.8520  C.3        1 SUBUNIT      0.0014
16   C        15.3310   23.8170   47.6910  C.2        1 SUBUNIT     -0.0457
17   C        15.6600   23.8770   49.0750  C.2        1 SUBUNIT     -0.0375
18   C        15.8330   25.2290   49.7750  C.3        1 SUBUNIT     -0.0683
19   C        15.8420   22.7100   49.8270  C.2        1 SUBUNIT     -0.1197
20   C        15.1950   22.5220   47.1100  C.2        1 SUBUNIT     -0.0375
21   C        14.8310   22.3710   45.6230  C.3        1 SUBUNIT     -0.0683
22   C        15.3830   21.3550   47.8790  C.2        1 SUBUNIT     -0.1197
23   C        15.7040   21.4410   49.2330  C.2        1 SUBUNIT      0.1526
24   O        15.8690   20.2840   49.9540  O.3        1 SUBUNIT     -0.3922
25   C        16.8550   20.4300   51.0060  C.3        1 SUBUNIT      0.1787
26   C        16.8960   19.1740   51.8690  C.2        1 SUBUNIT      0.7541
27   O        15.8770   18.8900   52.5430  O.co2      1 SUBUNIT     -0.8773
28   O        17.9490   18.4970   51.8570  O.co2      1 SUBUNIT     -0.8773
29   H        13.2974   25.3241   41.9872  H          1 SUBUNIT      0.1107
30   H        12.5722   23.3677   40.6406  H          1 SUBUNIT      0.1108
31   H        10.1826   22.6992   40.5979  H          1 SUBUNIT      0.1108
32   H         8.5152   23.9850   41.9182  H          1 SUBUNIT      0.1108
33   H         9.2364   25.9458   43.2693  H          1 SUBUNIT      0.1107
34   H        12.7078   27.3820   43.1384  H          1 SUBUNIT      0.0385
35   H        11.0115   27.7318   43.5844  H          1 SUBUNIT      0.0385
36   H        14.1396   26.1040   44.5520  H          1 SUBUNIT      0.1032
37   H         9.3295   26.9797   46.4312  H          1 SUBUNIT      0.3771
38   H        10.5620   25.7688   47.9596  H          1 SUBUNIT      0.1018
39   H        12.8825   25.0067   48.5155  H          1 SUBUNIT      0.1013
40   H        15.6539   24.9605   45.8906  H          1 SUBUNIT      0.0345
41   H        15.6286   25.9325   47.3916  H          1 SUBUNIT      0.0345
42   H        16.6356   25.8115   49.3106  H          1 SUBUNIT      0.0402
43   H        16.0835   25.0942   50.8324  H          1 SUBUNIT      0.0402
44   H        14.9129   25.8201   49.7198  H          1 SUBUNIT      0.0402
45   H        16.0902   22.7869   50.8711  H          1 SUBUNIT      0.1009
46   H        13.8640   22.8368   45.4065  H          1 SUBUNIT      0.0402
47   H        14.7669   21.3152   45.3400  H          1 SUBUNIT      0.0402
48   H        15.5836   22.8455   44.9846  H          1 SUBUNIT      0.0402
49   H        15.2790   20.3864   47.4220  H          1 SUBUNIT      0.1009
50   H        17.8346   20.5984   50.5466  H          1 SUBUNIT      0.0217
51   H        16.5857   21.2955   51.6204  H          1 SUBUNIT      0.0217
@<TRIPOS>BOND
     1    1    2 2
     2    1    6 1
     3    2    3 1
     4    3    4 2
     5    4    5 1
     6    5    6 2
     7    6    7 1
     8    7    8 1
     9    8    9 1
    10    8   10 2
    11    9   14 2
    12   10   11 1
    13   10   12 1
    14   12   13 2
    15   13   14 1
    16   14   15 1
    17   15   16 1
    18   16   17 2
    19   16   20 1
    20   17   18 1
    21   17   19 1
    22   19   23 2
    23   20   21 1
    24   20   22 2
    25   22   23 1
    26   23   24 1
    27   24   25 1
    28   25   26 1
    29   26   27 2
    30   26   28 1
    31    1   29 1
    32    2   30 1
    33    3   31 1
    34    4   32 1
    35    5   33 1
    36    7   34 1
    37    7   35 1
    38    9   36 1
    39   11   37 1
    40   12   38 1
    41   13   39 1
    42   15   40 1
    43   15   41 1
    44   18   42 1
    45   18   43 1
    46   18   44 1
    47   19   45 1
    48   21   46 1
    49   21   47 1
    50   21   48 1
    51   22   49 1
    52   25   50 1
    53   25   51 1
