@<TRIPOS>MOLECULE
CHEMBL556348
   88    89     0     0     0
SMALL
USER_CHARGES

@<TRIPOS>ATOM
      1 C1          1.1934   -1.3039   -5.8879 C.3       1 <0>        -0.1515
      2 C2          0.1772   -0.4056   -5.1799 C.3       1 <0>        -0.1069
      3 H1          0.5804   -0.0886   -4.2181 H         1 <0>         0.1130
      4 C3         -1.1221   -1.1823   -4.9572 C.3       1 <0>        -0.1541
      5 C4         -2.0751   -0.3471   -4.0998 C.3       1 <0>         0.0851
      6 H2         -2.2122    0.6324   -4.5581 H         1 <0>         0.1575
      7 C5         -3.4266   -1.0572   -4.0002 C.3       1 <0>        -0.0093
      8 H3         -3.8476   -1.1787   -4.9982 H         1 <0>         0.1561
      9 C6         -4.3796   -0.2220   -3.1429 C.3       1 <0>        -0.1416
     10 C7         -5.7621   -0.8773   -3.1310 C.3       1 <0>        -0.0882
     11 H4         -5.6687   -1.9170   -2.8174 H         1 <0>         0.0662
     12 C8         -6.3654   -0.8206   -4.5359 C.3       1 <0>        -0.0796
     13 C9         -7.6616   -1.5891   -4.5574 C.ar      1 <0>        -0.0913
     14 C10        -7.6478   -2.9598   -4.7367 C.ar      1 <0>        -0.1205
     15 C11        -8.8342   -3.6693   -4.7572 C.ar      1 <0>        -0.1704
     16 C12       -10.0405   -3.0066   -4.5972 C.ar      1 <0>         0.1075
     17 C13       -10.0543   -1.6270   -4.4162 C.ar      1 <0>         0.1130
     18 C14        -8.8613   -0.9225   -4.3920 C.ar      1 <0>        -0.1684
     19 O1        -11.2357   -0.9721   -4.2588 O.3       1 <0>        -0.2970
     20 C15       -11.1734    0.4440   -4.0777 C.3       1 <0>         0.0652
     21 C16       -12.5897    1.0007   -3.9188 C.3       1 <0>        -0.1230
     22 C17       -12.5230    2.5169   -3.7249 C.3       1 <0>         0.0670
     23 O2        -13.8457    3.0368   -3.5765 O.3       1 <0>        -0.3878
     24 C18       -13.8961    4.4525   -3.3886 C.3       1 <0>         0.0309
     25 O3        -11.2085   -3.7030   -4.6175 O.3       1 <0>        -0.3020
     26 C19       -11.1179   -5.1163   -4.8080 C.3       1 <0>         0.0247
     27 C20        -6.6724   -0.1298   -2.1546 C.3       1 <0>        -0.0923
     28 C21        -6.1161   -0.2623   -0.7354 C.3       1 <0>        -0.1552
     29 C22        -6.7322    1.3488   -2.5430 C.3       1 <0>        -0.1581
     30 N1         -3.2418   -2.3772   -3.3827 N.4       1 <0>        -0.6421
     31 O4         -1.5231   -0.1878   -2.7914 O.3       1 <0>        -0.5363
     32 C23        -0.1016    0.8060   -6.0316 C.2       1 <0>         0.5212
     33 O5         -1.2284    1.0265   -6.4221 O.2       1 <0>        -0.5385
     34 N2          0.9014    1.6445   -6.3594 N.am      1 <0>        -0.7289
     35 C24         0.6304    2.8223   -7.1874 C.3       1 <0>         0.1158
     36 C25         1.9296    3.5990   -7.4101 C.3       1 <0>        -0.1337
     37 C26         1.6466    4.8291   -8.2748 C.3       1 <0>        -0.0599
     38 C27         2.9263    5.5941   -8.4941 C.2       1 <0>         0.0294
     39 C28         3.4528    6.5113   -7.6604 C.2       1 <0>         0.0364
     40 N3          4.6112    6.9544   -8.2396 N.pl3     1 <0>        -0.5085
     41 H5          5.2174    7.6198   -7.8783 H         1 <0>         0.4696
     42 C29         4.7523    6.2922   -9.4080 C.cat     1 <0>         0.3110
     43 N4          3.7435    5.4767   -9.5512 N.pl3     1 <0>        -0.4759
     44 H6          2.0875   -0.7262   -6.1226 H         1 <0>         0.0664
     45 H7          1.4593   -2.1359   -5.2358 H         1 <0>         0.0748
     46 H8          0.7576   -1.6894   -6.8095 H         1 <0>         0.0667
     47 H9         -1.5889   -1.3929   -5.9194 H         1 <0>         0.1009
     48 H10        -0.9018   -2.1201   -4.4472 H         1 <0>         0.0745
     49 H11        -3.9961   -0.1644   -2.1242 H         1 <0>         0.1022
     50 H12        -4.4571    0.7824   -3.5592 H         1 <0>         0.1188
     51 H13        -6.5540    0.2177   -4.8088 H         1 <0>         0.0866
     52 H14        -5.6690   -1.2628   -5.2485 H         1 <0>         0.0685
     53 H15        -6.7082   -3.4775   -4.8615 H         1 <0>         0.1166
     54 H16        -8.8207   -4.7400   -4.8981 H         1 <0>         0.1373
     55 H17        -8.8690    0.1478   -4.2479 H         1 <0>         0.1349
     56 H18       -10.5916    0.6708   -3.1843 H         1 <0>         0.0632
     57 H19       -10.6988    0.9009   -4.9461 H         1 <0>         0.0637
     58 H20       -13.1716    0.7739   -4.8122 H         1 <0>         0.0865
     59 H21       -13.0643    0.5439   -3.0504 H         1 <0>         0.0863
     60 H22       -11.9411    2.7437   -2.8315 H         1 <0>         0.0509
     61 H23       -12.0483    2.9737   -4.5933 H         1 <0>         0.0512
     62 H24       -13.3427    4.7194   -2.4882 H         1 <0>         0.0430
     63 H25       -13.4500    4.9495   -4.2500 H         1 <0>         0.0431
     64 H26       -14.9341    4.7684   -3.2842 H         1 <0>         0.0919
     65 H27       -12.1186   -5.5484   -4.8039 H         1 <0>         0.1068
     66 H28       -10.6365   -5.3240   -5.7636 H         1 <0>         0.0567
     67 H29       -10.5296   -5.5546   -4.0019 H         1 <0>         0.0560
     68 H30        -7.6748   -0.5564   -2.1932 H         1 <0>         0.0860
     69 H31        -5.1598    0.2565   -0.6702 H         1 <0>         0.0564
     70 H32        -6.8178    0.1788   -0.0275 H         1 <0>         0.0643
     71 H33        -5.9746   -1.3165   -0.4976 H         1 <0>         0.0533
     72 H34        -7.2015    1.4487   -3.5217 H         1 <0>         0.0587
     73 H35        -7.3160    1.8957   -1.8026 H         1 <0>         0.0628
     74 H36        -5.7216    1.7555   -2.5814 H         1 <0>         0.0581
     75 H37        -2.9301   -2.2622   -2.4300 H         1 <0>         0.4304
     76 H38        -4.1175   -2.8784   -3.3918 H         1 <0>         0.4397
     77 H39        -1.3739   -1.0207   -2.3234 H         1 <0>         0.3669
     78 H40         1.8026    1.4681   -6.0471 H         1 <0>         0.4044
     79 H41         0.2272    2.5053   -8.1492 H         1 <0>         0.0756
     80 H42        -0.0936    3.4622   -6.6830 H         1 <0>         0.0776
     81 H43         2.3328    3.9160   -6.4483 H         1 <0>         0.0833
     82 H44         2.6536    2.9591   -7.9145 H         1 <0>         0.0762
     83 H45         1.2434    4.5121   -9.2366 H         1 <0>         0.1012
     84 H46         0.9226    5.4690   -7.7704 H         1 <0>         0.1172
     85 H47         3.0403    6.8352   -6.7163 H         1 <0>         0.2265
     86 H48         5.5671    6.4142  -10.1063 H         1 <0>         0.2680
     87 H49        -2.5510   -2.8978   -3.9021 H         1 <0>         0.4323
     88 H50         3.6055    4.8811  -10.3042 H         1 <0>         0.4652
@<TRIPOS>BOND
     1    1    2 1
     2    1   44 1
     3    1   45 1
     4    1   46 1
     5    2    3 1
     6    2    4 1
     7    2   32 1
     8    4    5 1
     9    4   47 1
    10    4   48 1
    11    5    6 1
    12    5    7 1
    13    5   31 1
    14    7    8 1
    15    7    9 1
    16    7   30 1
    17    9   10 1
    18    9   49 1
    19    9   50 1
    20   10   11 1
    21   10   12 1
    22   10   27 1
    23   12   13 1
    24   12   51 1
    25   12   52 1
    26   13   18 ar
    27   13   14 ar
    28   14   15 ar
    29   14   53 1
    30   15   16 ar
    31   15   54 1
    32   16   17 ar
    33   16   25 1
    34   17   18 ar
    35   17   19 1
    36   18   55 1
    37   19   20 1
    38   20   21 1
    39   20   56 1
    40   20   57 1
    41   21   22 1
    42   21   58 1
    43   21   59 1
    44   22   23 1
    45   22   60 1
    46   22   61 1
    47   23   24 1
    48   24   62 1
    49   24   63 1
    50   24   64 1
    51   25   26 1
    52   26   65 1
    53   26   66 1
    54   26   67 1
    55   27   28 1
    56   27   29 1
    57   27   68 1
    58   28   69 1
    59   28   70 1
    60   28   71 1
    61   29   72 1
    62   29   73 1
    63   29   74 1
    64   30   75 1
    65   30   76 1
    66   30   87 1
    67   31   77 1
    68   32   33 2
    69   32   34 am
    70   34   35 1
    71   34   78 1
    72   35   36 1
    73   35   79 1
    74   35   80 1
    75   36   37 1
    76   36   81 1
    77   36   82 1
    78   37   38 1
    79   37   83 1
    80   37   84 1
    81   38   43 1
    82   38   39 2
    83   39   40 1
    84   39   85 1
    85   40   41 1
    86   40   42 1
    87   42   43 2
    88   42   86 1
    89   43   88 1
@<TRIPOS>MOLECULE
CHEMBL556348__1
   87    88     0     0     0
SMALL
USER_CHARGES

@<TRIPOS>ATOM
      1 C1         -5.6602   -1.4397    1.9195 C.3       1 <0>        -0.1515
      2 C2         -4.5619   -0.5118    2.4425 C.3       1 <0>        -0.1076
      3 H1         -3.9386   -0.1820    1.6113 H         1 <0>         0.1112
      4 C3         -3.7004   -1.2636    3.4591 C.3       1 <0>        -0.1515
      5 C4         -2.5028   -0.3966    3.8528 C.3       1 <0>         0.0842
      6 H2         -2.8556    0.5755    4.1972 H         1 <0>         0.1595
      7 C5         -1.7233   -1.0835    4.9760 C.3       1 <0>        -0.0091
      8 H3         -2.3740   -1.2183    5.8400 H         1 <0>         0.1563
      9 C6         -0.5257   -0.2165    5.3698 C.3       1 <0>        -0.1420
     10 C7          0.1918   -0.8498    6.5635 C.3       1 <0>        -0.0876
     11 H4          0.4428   -1.8844    6.3294 H         1 <0>         0.0656
     12 C8         -0.7245   -0.8119    7.7881 C.3       1 <0>        -0.0816
     13 C9         -0.0760   -1.5603    8.9241 C.ar      1 <0>        -0.0883
     14 C10        -0.2038   -2.9345    9.0067 C.ar      1 <0>        -0.1204
     15 C11         0.3892   -3.6256   10.0468 C.ar      1 <0>        -0.1701
     16 C12         1.1139   -2.9412   11.0092 C.ar      1 <0>         0.1056
     17 C13         1.2428   -1.5581   10.9259 C.ar      1 <0>         0.1125
     18 C14         0.6500   -0.8720    9.8781 C.ar      1 <0>        -0.1680
     19 O1          1.9531   -0.8819   11.8681 O.3       1 <0>        -0.2978
     20 C15         2.0432    0.5364   11.7186 C.3       1 <0>         0.0645
     21 C16         2.8745    1.1181   12.8638 C.3       1 <0>        -0.1220
     22 C17         2.9710    2.6367   12.7037 C.3       1 <0>         0.0664
     23 O2          3.7475    3.1800   13.7733 O.3       1 <0>        -0.3884
     24 C18         3.8998    4.5997   13.7181 C.3       1 <0>         0.0308
     25 O3          1.6974   -3.6195   12.0333 O.3       1 <0>        -0.3028
     26 C19         1.5227   -5.0376   12.0551 C.3       1 <0>         0.0250
     27 C20         1.4734   -0.0689    6.8611 C.3       1 <0>        -0.0918
     28 C21         2.4275   -0.1816    5.6703 C.3       1 <0>        -0.1550
     29 C22         1.1299    1.4024    7.1018 C.3       1 <0>        -0.1588
     30 N1         -1.2478   -2.3936    4.5119 N.4       1 <0>        -0.6417
     31 O4         -1.6498   -0.2198    2.7201 O.3       1 <0>        -0.5352
     32 C23        -5.1905    0.6867    3.1055 C.2       1 <0>         0.5180
     33 O5         -4.9710    0.9169    4.2759 O.2       1 <0>        -0.5464
     34 N2         -5.9966    1.5028    2.3979 N.am      1 <0>        -0.7231
     35 C24        -6.6076    2.6679    3.0424 C.3       1 <0>         0.1164
     36 C25        -7.4692    3.4197    2.0258 C.3       1 <0>        -0.1283
     37 C26        -8.1073    4.6364    2.6989 C.3       1 <0>        -0.0381
     38 C27        -8.9559    5.3769    1.6976 C.2       1 <0>        -0.0323
     39 C28       -10.2359    5.1089    1.3760 C.2       1 <0>        -0.0178
     40 N3        -10.6250    5.9959    0.4481 N.2       1 <0>        -0.4924
     41 H5         -7.7070    6.8863    0.9545 H         1 <0>         0.4190
     42 C29        -9.6348    6.8034    0.1826 C.2       1 <0>         0.1894
     43 N4         -8.5758    6.4550    0.9446 N.pl3     1 <0>        -0.5680
     44 H6         -6.2307   -1.8368    2.7591 H         1 <0>         0.0663
     45 H7         -6.3248   -0.8809    1.2605 H         1 <0>         0.0694
     46 H8         -5.2076   -2.2626    1.3662 H         1 <0>         0.0719
     47 H9         -4.2949   -1.4861    4.3452 H         1 <0>         0.1005
     48 H10        -3.3453   -2.1943    3.0166 H         1 <0>         0.0719
     49 H11         0.1631   -0.1446    4.5281 H         1 <0>         0.1019
     50 H12        -0.8726    0.7804    5.6416 H         1 <0>         0.1195
     51 H13        -0.8925    0.2235    8.0843 H         1 <0>         0.0875
     52 H14        -1.6783   -1.2790    7.5429 H         1 <0>         0.0701
     53 H15        -0.7684   -3.4691    8.2571 H         1 <0>         0.1173
     54 H16         0.2873   -4.6990   10.1094 H         1 <0>         0.1368
     55 H17         0.7517    0.2010    9.8090 H         1 <0>         0.1352
     56 H18         2.5202    0.7719   10.7672 H         1 <0>         0.0634
     57 H19         1.0427    0.9683   11.7401 H         1 <0>         0.0644
     58 H20         2.3975    0.8826   13.8151 H         1 <0>         0.0861
     59 H21         3.8751    0.6862   12.8423 H         1 <0>         0.0856
     60 H22         3.4480    2.8722   11.7524 H         1 <0>         0.0513
     61 H23         1.9705    3.0686   12.7252 H         1 <0>         0.0520
     62 H24         4.5010    4.9338   14.5637 H         1 <0>         0.0911
     63 H25         4.3961    4.8760   12.7877 H         1 <0>         0.0430
     64 H26         2.9186    5.0724   13.7606 H         1 <0>         0.0435
     65 H27         1.9376   -5.4688   11.1441 H         1 <0>         0.0555
     66 H28         2.0372   -5.4539   12.9212 H         1 <0>         0.1057
     67 H29         0.4599   -5.2718   12.1166 H         1 <0>         0.0565
     68 H30         1.9516   -0.4806    7.7499 H         1 <0>         0.0848
     69 H31         3.3800    0.2844    5.9225 H         1 <0>         0.0634
     70 H32         2.5891   -1.2330    5.4324 H         1 <0>         0.0527
     71 H33         1.9930    0.3234    4.8076 H         1 <0>         0.0573
     72 H34         0.5145    1.4900    7.9972 H         1 <0>         0.0589
     73 H35         2.0489    1.9730    7.2354 H         1 <0>         0.0620
     74 H36         0.5814    1.7924    6.2444 H         1 <0>         0.0596
     75 H37        -0.8055   -2.8811    5.2766 H         1 <0>         0.4380
     76 H38        -2.0297   -2.9352    4.1750 H         1 <0>         0.4328
     77 H39        -1.2982   -1.0454    2.3598 H         1 <0>         0.3647
     78 H40        -6.1721    1.3187    1.4618 H         1 <0>         0.4042
     79 H41        -7.2309    2.3380    3.8735 H         1 <0>         0.0746
     80 H42        -5.8252    3.3289    3.4150 H         1 <0>         0.0710
     81 H43        -6.8459    3.7495    1.1946 H         1 <0>         0.0693
     82 H44        -8.2516    2.7586    1.6532 H         1 <0>         0.0782
     83 H45        -8.7306    4.3066    3.5301 H         1 <0>         0.0927
     84 H46        -7.3249    5.2975    3.0715 H         1 <0>         0.0741
     85 H47       -10.8426    4.3183    1.7922 H         1 <0>         0.1686
     86 H48        -9.6594    7.6175   -0.5265 H         1 <0>         0.2099
     87 H49        -0.5816   -2.2644    3.7652 H         1 <0>         0.4298
@<TRIPOS>BOND
     1    1    2 1
     2    1   44 1
     3    1   45 1
     4    1   46 1
     5    2    3 1
     6    2    4 1
     7    2   32 1
     8    4    5 1
     9    4   47 1
    10    4   48 1
    11    5    6 1
    12    5    7 1
    13    5   31 1
    14    7    8 1
    15    7    9 1
    16    7   30 1
    17    9   10 1
    18    9   49 1
    19    9   50 1
    20   10   11 1
    21   10   12 1
    22   10   27 1
    23   12   13 1
    24   12   51 1
    25   12   52 1
    26   13   18 ar
    27   13   14 ar
    28   14   15 ar
    29   14   53 1
    30   15   16 ar
    31   15   54 1
    32   16   17 ar
    33   16   25 1
    34   17   18 ar
    35   17   19 1
    36   18   55 1
    37   19   20 1
    38   20   21 1
    39   20   56 1
    40   20   57 1
    41   21   22 1
    42   21   58 1
    43   21   59 1
    44   22   23 1
    45   22   60 1
    46   22   61 1
    47   23   24 1
    48   24   62 1
    49   24   63 1
    50   24   64 1
    51   25   26 1
    52   26   65 1
    53   26   66 1
    54   26   67 1
    55   27   28 1
    56   27   29 1
    57   27   68 1
    58   28   69 1
    59   28   70 1
    60   28   71 1
    61   29   72 1
    62   29   73 1
    63   29   74 1
    64   30   75 1
    65   30   76 1
    66   30   87 1
    67   31   77 1
    68   32   33 2
    69   32   34 am
    70   34   35 1
    71   34   78 1
    72   35   36 1
    73   35   79 1
    74   35   80 1
    75   36   37 1
    76   36   81 1
    77   36   82 1
    78   37   83 1
    79   37   84 1
    80   37   38 1
    81   38   39 2
    82   38   43 1
    83   39   40 1
    84   39   85 1
    85   40   42 2
    86   41   43 1
    87   42   86 1
    88   42   43 1
@<TRIPOS>MOLECULE
CHEMBL556348__2
   87    88     0     0     0
SMALL
USER_CHARGES

@<TRIPOS>ATOM
      1 C1          1.1934   -1.3039   -5.8879 C.3       1 <0>        -0.1510
      2 C2          0.1772   -0.4056   -5.1799 C.3       1 <0>        -0.1081
      3 H1          0.5804   -0.0886   -4.2181 H         1 <0>         0.1114
      4 C3         -1.1221   -1.1823   -4.9572 C.3       1 <0>        -0.1508
      5 C4         -2.0751   -0.3471   -4.0998 C.3       1 <0>         0.0839
      6 H2         -2.2122    0.6324   -4.5581 H         1 <0>         0.1602
      7 C5         -3.4266   -1.0572   -4.0002 C.3       1 <0>        -0.0089
      8 H3         -3.8476   -1.1787   -4.9982 H         1 <0>         0.1561
      9 C6         -4.3796   -0.2220   -3.1429 C.3       1 <0>        -0.1422
     10 C7         -5.7621   -0.8773   -3.1310 C.3       1 <0>        -0.0875
     11 H4         -5.6687   -1.9170   -2.8174 H         1 <0>         0.0654
     12 C8         -6.3654   -0.8206   -4.5359 C.3       1 <0>        -0.0819
     13 C9         -7.6616   -1.5891   -4.5574 C.ar      1 <0>        -0.0876
     14 C10        -7.6478   -2.9598   -4.7367 C.ar      1 <0>        -0.1205
     15 C11        -8.8342   -3.6693   -4.7572 C.ar      1 <0>        -0.1701
     16 C12       -10.0405   -3.0066   -4.5972 C.ar      1 <0>         0.1052
     17 C13       -10.0543   -1.6270   -4.4162 C.ar      1 <0>         0.1125
     18 C14        -8.8613   -0.9225   -4.3920 C.ar      1 <0>        -0.1679
     19 O1        -11.2357   -0.9721   -4.2588 O.3       1 <0>        -0.2979
     20 C15       -11.1734    0.4440   -4.0777 C.3       1 <0>         0.0644
     21 C16       -12.5897    1.0007   -3.9188 C.3       1 <0>        -0.1219
     22 C17       -12.5230    2.5169   -3.7249 C.3       1 <0>         0.0663
     23 O2        -13.8457    3.0368   -3.5765 O.3       1 <0>        -0.3885
     24 C18       -13.8961    4.4525   -3.3886 C.3       1 <0>         0.0308
     25 O3        -11.2085   -3.7030   -4.6175 O.3       1 <0>        -0.3029
     26 C19       -11.1179   -5.1163   -4.8080 C.3       1 <0>         0.0251
     27 C20        -6.6724   -0.1298   -2.1546 C.3       1 <0>        -0.0917
     28 C21        -6.1161   -0.2623   -0.7354 C.3       1 <0>        -0.1550
     29 C22        -6.7322    1.3488   -2.5430 C.3       1 <0>        -0.1590
     30 N1         -3.2418   -2.3772   -3.3827 N.4       1 <0>        -0.6416
     31 O4         -1.5231   -0.1878   -2.7914 O.3       1 <0>        -0.5345
     32 C23        -0.1016    0.8060   -6.0316 C.2       1 <0>         0.5172
     33 O5         -1.2284    1.0265   -6.4221 O.2       1 <0>        -0.5483
     34 N2          0.9014    1.6445   -6.3594 N.am      1 <0>        -0.7212
     35 C24         0.6304    2.8223   -7.1874 C.3       1 <0>         0.1160
     36 C25         1.9296    3.5990   -7.4101 C.3       1 <0>        -0.1233
     37 C26         1.6466    4.8291   -8.2748 C.3       1 <0>        -0.0280
     38 C27         2.9263    5.5941   -8.4941 C.2       1 <0>        -0.0035
     39 C28         3.4462    5.9415   -9.6869 C.2       1 <0>        -0.0513
     40 N3          4.6064    6.6210   -9.4305 N.pl3     1 <0>        -0.5693
     41 H5          5.2091    7.0000  -10.0893 H         1 <0>         0.4231
     42 C29         4.7553    6.6653   -8.0890 C.2       1 <0>         0.1885
     43 N4          3.7442    6.0535   -7.5355 N.2       1 <0>        -0.4912
     44 H6          2.0875   -0.7262   -6.1226 H         1 <0>         0.0693
     45 H7          1.4593   -2.1359   -5.2358 H         1 <0>         0.0712
     46 H8          0.7576   -1.6894   -6.8095 H         1 <0>         0.0655
     47 H9         -1.5889   -1.3929   -5.9194 H         1 <0>         0.1000
     48 H10        -0.9018   -2.1201   -4.4472 H         1 <0>         0.0710
     49 H11        -3.9961   -0.1644   -2.1242 H         1 <0>         0.1020
     50 H12        -4.4571    0.7824   -3.5592 H         1 <0>         0.1200
     51 H13        -6.5540    0.2177   -4.8088 H         1 <0>         0.0877
     52 H14        -5.6690   -1.2628   -5.2485 H         1 <0>         0.0702
     53 H15        -6.7082   -3.4775   -4.8615 H         1 <0>         0.1174
     54 H16        -8.8207   -4.7400   -4.8981 H         1 <0>         0.1367
     55 H17        -8.8690    0.1478   -4.2479 H         1 <0>         0.1354
     56 H18       -10.5916    0.6708   -3.1843 H         1 <0>         0.0636
     57 H19       -10.6988    0.9009   -4.9461 H         1 <0>         0.0645
     58 H20       -13.1716    0.7739   -4.8122 H         1 <0>         0.0860
     59 H21       -13.0643    0.5439   -3.0504 H         1 <0>         0.0854
     60 H22       -11.9411    2.7437   -2.8315 H         1 <0>         0.0514
     61 H23       -12.0483    2.9737   -4.5933 H         1 <0>         0.0521
     62 H24       -14.9341    4.7684   -3.2842 H         1 <0>         0.0910
     63 H25       -13.3427    4.7194   -2.4882 H         1 <0>         0.0431
     64 H26       -13.4500    4.9495   -4.2500 H         1 <0>         0.0435
     65 H27       -12.1186   -5.5484   -4.8039 H         1 <0>         0.1055
     66 H28       -10.6365   -5.3240   -5.7636 H         1 <0>         0.0564
     67 H29       -10.5296   -5.5546   -4.0019 H         1 <0>         0.0554
     68 H30        -7.6748   -0.5564   -2.1932 H         1 <0>         0.0844
     69 H31        -5.1598    0.2565   -0.6702 H         1 <0>         0.0577
     70 H32        -6.8178    0.1788   -0.0275 H         1 <0>         0.0632
     71 H33        -5.9746   -1.3165   -0.4976 H         1 <0>         0.0525
     72 H34        -7.2015    1.4487   -3.5217 H         1 <0>         0.0588
     73 H35        -7.3160    1.8957   -1.8026 H         1 <0>         0.0619
     74 H36        -5.7216    1.7555   -2.5814 H         1 <0>         0.0601
     75 H37        -2.9301   -2.2622   -2.4300 H         1 <0>         0.4297
     76 H38        -4.1175   -2.8784   -3.3918 H         1 <0>         0.4376
     77 H39        -1.3739   -1.0207   -2.3234 H         1 <0>         0.3640
     78 H40         1.8026    1.4681   -6.0471 H         1 <0>         0.4039
     79 H41         0.2272    2.5053   -8.1492 H         1 <0>         0.0707
     80 H42        -0.0936    3.4622   -6.6830 H         1 <0>         0.0716
     81 H43         2.3328    3.9160   -6.4483 H         1 <0>         0.0789
     82 H44         2.6536    2.9591   -7.9145 H         1 <0>         0.0678
     83 H45         1.2434    4.5121   -9.2366 H         1 <0>         0.0773
     84 H46         0.9226    5.4690   -7.7704 H         1 <0>         0.0776
     85 H47         3.0282    5.7251  -10.6590 H         1 <0>         0.1761
     86 H48         5.5734    7.1331   -7.5616 H         1 <0>         0.2090
     87 H49        -2.5510   -2.8978   -3.9021 H         1 <0>         0.4326
@<TRIPOS>BOND
     1    1    2 1
     2    1   44 1
     3    1   45 1
     4    1   46 1
     5    2    3 1
     6    2    4 1
     7    2   32 1
     8    4    5 1
     9    4   47 1
    10    4   48 1
    11    5    6 1
    12    5    7 1
    13    5   31 1
    14    7    8 1
    15    7    9 1
    16    7   30 1
    17    9   10 1
    18    9   49 1
    19    9   50 1
    20   10   11 1
    21   10   12 1
    22   10   27 1
    23   12   13 1
    24   12   51 1
    25   12   52 1
    26   13   18 ar
    27   13   14 ar
    28   14   15 ar
    29   14   53 1
    30   15   16 ar
    31   15   54 1
    32   16   17 ar
    33   16   25 1
    34   17   18 ar
    35   17   19 1
    36   18   55 1
    37   19   20 1
    38   20   21 1
    39   20   56 1
    40   20   57 1
    41   21   22 1
    42   21   58 1
    43   21   59 1
    44   22   23 1
    45   22   60 1
    46   22   61 1
    47   23   24 1
    48   24   62 1
    49   24   63 1
    50   24   64 1
    51   25   26 1
    52   26   65 1
    53   26   66 1
    54   26   67 1
    55   27   28 1
    56   27   29 1
    57   27   68 1
    58   28   69 1
    59   28   70 1
    60   28   71 1
    61   29   72 1
    62   29   73 1
    63   29   74 1
    64   30   75 1
    65   30   76 1
    66   30   87 1
    67   31   77 1
    68   32   33 2
    69   32   34 am
    70   34   35 1
    71   34   78 1
    72   35   36 1
    73   35   79 1
    74   35   80 1
    75   36   37 1
    76   36   81 1
    77   36   82 1
    78   37   38 1
    79   37   83 1
    80   37   84 1
    81   38   43 1
    82   38   39 2
    83   39   40 1
    84   39   85 1
    85   40   41 1
    86   40   42 1
    87   42   43 2
    88   42   86 1
@<TRIPOS>MOLECULE
CHEMBL31404
   82    86     0     0     0
SMALL
USER_CHARGES

@<TRIPOS>ATOM
      1 C1         -0.0173    1.4248    0.0099 C.3       1 <0>         0.0264
      2 O1          0.0021   -0.0041    0.0020 O.3       1 <0>        -0.3189
      3 C2         -1.2003   -0.6375    0.0101 C.ar      1 <0>         0.1311
      4 C3         -2.3748    0.1012    0.0195 C.ar      1 <0>        -0.2067
      5 C4         -3.5956   -0.5449    0.0272 C.ar      1 <0>        -0.0782
      6 C5         -3.6478   -1.9268    0.0256 C.ar      1 <0>        -0.1573
      7 C6         -2.4790   -2.6650    0.0167 C.ar      1 <0>        -0.0598
      8 C7         -1.2554   -2.0235    0.0032 C.ar      1 <0>        -0.1255
      9 C8          0.0182   -2.8288   -0.0128 C.3       1 <0>         0.1185
     10 O2         -0.2992   -4.2221   -0.0174 O.3       1 <0>        -0.3828
     11 C9          0.8445   -5.0787   -0.0324 C.3       1 <0>         0.0706
     12 C10         0.3879   -6.5390   -0.0361 C.3       1 <0>        -0.1223
     13 C11         1.6124   -7.4562   -0.0522 C.3       1 <0>         0.0794
     14 O3          1.1859   -8.8201   -0.0556 O.3       1 <0>        -0.2802
     15 C12         2.1543   -9.7672   -0.0696 C.ar      1 <0>         0.5172
     16 N1          3.4233   -9.3927   -0.0738 N.ar      1 <0>        -0.5598
     17 C13         4.3940  -10.2915   -0.0873 C.ar      1 <0>         0.2130
     18 C14         4.0675  -11.6384   -0.0971 C.ar      1 <0>        -0.2443
     19 C15         2.7282  -11.9947   -0.0923 C.ar      1 <0>         0.1955
     20 N2          1.8080  -11.0443   -0.0732 N.ar      1 <0>        -0.5168
     21 C16         5.1448  -12.6920   -0.1131 C.3       1 <0>        -0.0357
     22 H1          6.1237  -12.2125   -0.1151 H         1 <0>         0.1112
     23 C17         5.0118  -13.5794    1.1278 C.3       1 <0>        -0.1411
     24 C18         6.0577  -14.6946    1.0653 C.3       1 <0>        -0.0089
     25 N3          5.8447  -15.5030   -0.1412 N.4       1 <0>        -0.5002
     26 C19         6.0415  -14.6746   -1.3369 C.3       1 <0>        -0.0377
     27 C20         4.9961  -13.5574   -1.3678 C.3       1 <0>         0.0768
     28 H2          3.9981  -13.9949   -1.3920 H         1 <0>         0.0872
     29 O4          5.1925  -12.7501   -2.5304 O.3       1 <0>        -0.3481
     30 C21         4.4619  -13.1931   -3.6758 C.3       1 <0>         0.1079
     31 C22         4.7422  -12.2740   -4.8368 C.ar      1 <0>        -0.0729
     32 C23         5.6110  -11.1993   -4.6665 C.ar      1 <0>        -0.2005
     33 C24         5.8868  -10.3479   -5.6981 C.ar      1 <0>         0.1510
     34 C25         5.2849  -10.5572   -6.9552 C.ar      1 <0>        -0.0584
     35 C26         5.5449   -9.7030   -8.0393 C.ar      1 <0>        -0.0865
     36 C27         4.9457   -9.9361   -9.2393 C.ar      1 <0>        -0.1160
     37 C28         4.0758  -11.0114   -9.4096 C.ar      1 <0>        -0.0961
     38 C29         3.8004  -11.8593   -8.3808 C.ar      1 <0>        -0.1097
     39 C30         4.4009  -11.6506   -7.1285 C.ar      1 <0>        -0.0340
     40 C31         4.1446  -12.5109   -6.0418 C.ar      1 <0>         0.0764
     41 O5          3.3036  -13.5683   -6.1911 O.3       1 <0>        -0.3300
     42 C32         1.9195  -13.3397   -5.9192 C.3       1 <0>         0.0286
     43 O6          6.7372   -9.3037   -5.5132 O.3       1 <0>        -0.3067
     44 C33         7.3086   -9.1549   -4.2119 C.3       1 <0>         0.0276
     45 H3          1.0053    1.8021    0.0021 H         1 <0>         0.1019
     46 H4         -0.5445    1.7859   -0.8732 H         1 <0>         0.0573
     47 H5         -0.5275    1.7763    0.9067 H         1 <0>         0.0574
     48 H6         -2.3345    1.1804    0.0211 H         1 <0>         0.1308
     49 H7         -4.5101    0.0296    0.0349 H         1 <0>         0.1267
     50 H8         -4.6033   -2.4302    0.0316 H         1 <0>         0.1261
     51 H9         -2.5225   -3.7442    0.0158 H         1 <0>         0.1383
     52 H10         0.5918   -2.5839   -0.9068 H         1 <0>         0.0644
     53 H11         0.6081   -2.5934    0.8731 H         1 <0>         0.0645
     54 H12         1.4351   -4.8805   -0.9268 H         1 <0>         0.0551
     55 H13         1.4515   -4.8901    0.8530 H         1 <0>         0.0554
     56 H14        -0.2028   -6.7372    0.8583 H         1 <0>         0.0867
     57 H15        -0.2191   -6.7277   -0.9215 H         1 <0>         0.0863
     58 H16         2.2030   -7.2580   -0.9466 H         1 <0>         0.0759
     59 H17         2.2193   -7.2675    0.8333 H         1 <0>         0.0767
     60 H18         5.4280   -9.9795   -0.0911 H         1 <0>         0.1720
     61 H19         2.4393  -13.0353   -0.1000 H         1 <0>         0.1669
     62 H20         5.1727  -12.9792    2.0234 H         1 <0>         0.1244
     63 H21         4.0140  -14.0174    1.1568 H         1 <0>         0.0940
     64 H22         7.0550  -14.2555    1.0366 H         1 <0>         0.1362
     65 H23         5.9658  -15.3281    1.9475 H         1 <0>         0.1410
     66 H24         6.5017  -16.2687   -0.1520 H         1 <0>         0.4373
     67 H25         7.0391  -14.2360   -1.3144 H         1 <0>         0.1434
     68 H26         5.9377  -15.2935   -2.2282 H         1 <0>         0.1375
     69 H27         4.7689  -14.2070   -3.9327 H         1 <0>         0.0749
     70 H28         3.3950  -13.1820   -3.4530 H         1 <0>         0.0698
     71 H29         6.0733  -11.0364   -3.7041 H         1 <0>         0.1409
     72 H30         6.2164   -8.8654   -7.9215 H         1 <0>         0.1369
     73 H31         5.1473   -9.2778  -10.0714 H         1 <0>         0.1310
     74 H32         3.6130  -11.1742  -10.3717 H         1 <0>         0.1306
     75 H33         3.1236  -12.6881   -8.5269 H         1 <0>         0.1340
     76 H34         1.8011  -13.0150   -4.8855 H         1 <0>         0.0423
     77 H35         1.5405  -12.5672   -6.5884 H         1 <0>         0.0527
     78 H36         1.3611  -14.2625   -6.0764 H         1 <0>         0.0997
     79 H37         7.9661   -8.2856   -4.2011 H         1 <0>         0.1056
     80 H38         6.5132   -9.0181   -3.4793 H         1 <0>         0.0565
     81 H39         7.8824  -10.0475   -3.9629 H         1 <0>         0.0570
     82 H40         4.9045  -15.8691   -0.1379 H         1 <0>         0.4285
@<TRIPOS>BOND
     1    1    2 1
     2    1   45 1
     3    1   46 1
     4    1   47 1
     5    2    3 1
     6    3    8 ar
     7    3    4 ar
     8    4    5 ar
     9    4   48 1
    10    5    6 ar
    11    5   49 1
    12    6    7 ar
    13    6   50 1
    14    7    8 ar
    15    7   51 1
    16    8    9 1
    17    9   10 1
    18    9   52 1
    19    9   53 1
    20   10   11 1
    21   11   12 1
    22   11   54 1
    23   11   55 1
    24   12   13 1
    25   12   56 1
    26   12   57 1
    27   13   14 1
    28   13   58 1
    29   13   59 1
    30   14   15 1
    31   15   20 ar
    32   15   16 ar
    33   16   17 ar
    34   17   18 ar
    35   17   60 1
    36   18   19 ar
    37   18   21 1
    38   19   20 ar
    39   19   61 1
    40   21   22 1
    41   21   27 1
    42   21   23 1
    43   23   24 1
    44   23   62 1
    45   23   63 1
    46   24   25 1
    47   24   64 1
    48   24   65 1
    49   25   26 1
    50   25   66 1
    51   25   82 1
    52   26   27 1
    53   26   67 1
    54   26   68 1
    55   27   28 1
    56   27   29 1
    57   29   30 1
    58   30   31 1
    59   30   69 1
    60   30   70 1
    61   31   40 ar
    62   31   32 ar
    63   32   33 ar
    64   32   71 1
    65   33   34 ar
    66   33   43 1
    67   34   39 ar
    68   34   35 ar
    69   35   36 ar
    70   35   72 1
    71   36   37 ar
    72   36   73 1
    73   37   38 ar
    74   37   74 1
    75   38   39 ar
    76   38   75 1
    77   39   40 ar
    78   40   41 1
    79   41   42 1
    80   42   76 1
    81   42   77 1
    82   42   78 1
    83   43   44 1
    84   44   79 1
    85   44   80 1
    86   44   81 1
@<TRIPOS>MOLECULE
CHEMBL48730
   96    97     0     0     0
SMALL
USER_CHARGES

@<TRIPOS>ATOM
      1 C1          0.0439   -5.8898    0.4858 C.3       1 <0>        -0.1489
      2 C2          1.1578   -4.8499    0.6223 C.3       1 <0>        -0.0932
      3 C3          2.0536   -5.2148    1.8078 C.3       1 <0>        -0.1608
      4 C4          1.9929   -4.8258   -0.6595 C.3       1 <0>        -0.1445
      5 C5          3.0234   -3.6980   -0.5757 C.3       1 <0>         0.0712
      6 H1          3.6323   -3.8280    0.3190 H         1 <0>         0.1054
      7 C6          3.9216   -3.7349   -1.8137 C.3       1 <0>         0.0660
      8 H2          3.3127   -3.6049   -2.7084 H         1 <0>         0.1131
      9 C7          4.9521   -2.6071   -1.7299 C.3       1 <0>         0.1169
     10 H3          4.4374   -1.6474   -1.6829 H         1 <0>         0.1092
     11 C8          5.8503   -2.6439   -2.9680 C.3       1 <0>        -0.1218
     12 C9          6.7987   -1.4435   -2.9459 C.3       1 <0>        -0.0797
     13 C10         5.9889   -0.1515   -3.0717 C.3       1 <0>        -0.1033
     14 C11         6.9373    1.0490   -3.0496 C.3       1 <0>        -0.1105
     15 C12         7.9179    0.9458   -4.2195 C.3       1 <0>        -0.1204
     16 C13         8.7276   -0.3463   -4.0938 C.3       1 <0>        -0.1224
     17 C14         7.7793   -1.5467   -4.1158 C.3       1 <0>        -0.1143
     18 N1          5.7705   -2.7818   -0.5274 N.am      1 <0>        -0.7240
     19 C15         6.3738   -1.7172    0.0376 C.2       1 <0>         0.5190
     20 O1          6.2914   -0.6257   -0.4845 O.2       1 <0>        -0.4957
     21 C16         7.1506   -1.8832    1.3182 C.3       1 <0>         0.0682
     22 H4          7.7714   -2.7768    1.2534 H         1 <0>         0.0632
     23 C17         6.1775   -2.0223    2.4907 C.3       1 <0>        -0.0992
     24 C18         5.3726   -3.3141    2.3349 C.3       1 <0>        -0.1143
     25 C19         6.3075   -4.5173    2.4733 C.3       1 <0>        -0.1588
     26 C20         4.2955   -3.3778    3.4197 C.3       1 <0>        -0.1514
     27 N2          8.0056   -0.7073    1.5283 N.3       1 <0>        -0.6460
     28 C21         9.0563   -0.9898    2.5152 C.3       1 <0>         0.1059
     29 H5          9.3900   -2.0217    2.4053 H         1 <0>         0.0784
     30 C22        10.2377   -0.0448    2.2870 C.3       1 <0>        -0.0794
     31 C23        10.8616   -0.3350    0.9463 C.ar      1 <0>        -0.0939
     32 C24        11.8781   -1.2662    0.8440 C.ar      1 <0>        -0.1128
     33 C25        12.4504   -1.5324   -0.3859 C.ar      1 <0>        -0.1168
     34 C26        12.0057   -0.8678   -1.5135 C.ar      1 <0>        -0.1169
     35 C27        10.9886    0.0627   -1.4113 C.ar      1 <0>        -0.1131
     36 C28        10.4134    0.3258   -0.1822 C.ar      1 <0>        -0.1152
     37 C29         8.5094   -0.7840    3.9042 C.2       1 <0>         0.4636
     38 O2          7.5529   -0.0662    4.0766 O.2       1 <0>        -0.4664
     39 O3          9.0847   -1.3981    4.9499 O.3       1 <0>        -0.3509
     40 C30         8.4452   -1.2533    6.2196 C.3       1 <0>         0.1183
     41 C31         7.0064   -1.7652    6.1272 C.3       1 <0>        -0.1855
     42 C32         9.2081   -2.0629    7.2702 C.3       1 <0>        -0.1412
     43 C33         8.4365    0.2231    6.6209 C.3       1 <0>        -0.1855
     44 O4          4.5963   -4.9930   -1.8754 O.3       1 <0>        -0.5429
     45 O5          2.3486   -2.4399   -0.5140 O.3       1 <0>        -0.5460
     46 H6         -0.6439   -5.5842   -0.3026 H         1 <0>         0.0527
     47 H7          0.4786   -6.8571    0.2339 H         1 <0>         0.0532
     48 H8         -0.4968   -5.9691    1.4290 H         1 <0>         0.0548
     49 H9          0.7183   -3.8664    0.7882 H         1 <0>         0.0759
     50 H10         2.4931   -6.1984    1.6419 H         1 <0>         0.0522
     51 H11         2.8472   -4.4739    1.9051 H         1 <0>         0.0664
     52 H12         1.4587   -5.2319    2.7210 H         1 <0>         0.0544
     53 H13         2.5070   -5.7799   -0.7761 H         1 <0>         0.0790
     54 H14         1.3395   -4.6581   -1.5156 H         1 <0>         0.0655
     55 H15         6.4314   -3.5661   -2.9679 H         1 <0>         0.0669
     56 H16         5.2335   -2.6032   -3.8657 H         1 <0>         0.0684
     57 H17         7.3526   -1.4353   -2.0072 H         1 <0>         0.0769
     58 H18         5.4350   -0.1597   -4.0104 H         1 <0>         0.0430
     59 H19         5.2903   -0.0779   -2.2382 H         1 <0>         0.0784
     60 H20         6.3604    1.9694   -3.1392 H         1 <0>         0.0525
     61 H21         7.4912    1.0572   -2.1109 H         1 <0>         0.0652
     62 H22         7.3640    0.9375   -5.1582 H         1 <0>         0.0560
     63 H23         8.5935    1.8010   -4.2038 H         1 <0>         0.0554
     64 H24         9.4262   -0.4198   -4.9272 H         1 <0>         0.0550
     65 H25         9.2815   -0.3380   -3.1550 H         1 <0>         0.0652
     66 H26         8.3562   -2.4672   -4.0262 H         1 <0>         0.0532
     67 H27         7.2254   -1.5550   -5.0545 H         1 <0>         0.0562
     68 H28         5.8782   -3.6636   -0.1380 H         1 <0>         0.3906
     69 H29         6.7371   -2.0533    3.4256 H         1 <0>         0.0737
     70 H30         5.4981   -1.1700    2.5020 H         1 <0>         0.0822
     71 H31         4.9005   -3.3318    1.3526 H         1 <0>         0.0782
     72 H32         6.7366   -4.5307    3.4751 H         1 <0>         0.0599
     73 H33         5.7447   -5.4358    2.3068 H         1 <0>         0.0600
     74 H34         7.1073   -4.4427    1.7364 H         1 <0>         0.0520
     75 H35         3.5766   -2.5731    3.2656 H         1 <0>         0.0582
     76 H36         3.7827   -4.3382    3.3666 H         1 <0>         0.0637
     77 H37         4.7598   -3.2675    4.3997 H         1 <0>         0.0547
     78 H38         8.4036   -0.3893    0.6573 H         1 <0>         0.3670
     79 H39         9.8871    0.9871    2.3089 H         1 <0>         0.0930
     80 H40        10.9788   -0.1934    3.0724 H         1 <0>         0.0930
     81 H41        12.2255   -1.7854    1.7249 H         1 <0>         0.1232
     82 H42        13.2450   -2.2594   -0.4657 H         1 <0>         0.1227
     83 H43        12.4533   -1.0753   -2.4743 H         1 <0>         0.1217
     84 H44        10.6414    0.5822   -2.2923 H         1 <0>         0.1264
     85 H45         9.6162    1.0501   -0.1029 H         1 <0>         0.1274
     86 H46         7.0058   -2.7758    5.7187 H         1 <0>         0.0600
     87 H47         6.5596   -1.7750    7.1215 H         1 <0>         0.0710
     88 H48         6.4286   -1.1096    5.4757 H         1 <0>         0.0844
     89 H49        10.2331   -1.6982    7.3360 H         1 <0>         0.0666
     90 H50         8.7203   -1.9524    8.2386 H         1 <0>         0.0780
     91 H51         9.2143   -3.1147    6.9843 H         1 <0>         0.0655
     92 H52         7.8930    0.7998    5.8724 H         1 <0>         0.0855
     93 H53         7.9487    0.3335    7.5893 H         1 <0>         0.0694
     94 H54         9.4616    0.5878    6.6867 H         1 <0>         0.0605
     95 H55         5.1580   -5.1761   -1.1098 H         1 <0>         0.3681
     96 H56         1.7869   -2.2569   -1.2796 H         1 <0>         0.3744
@<TRIPOS>BOND
     1    1    2 1
     2    1   46 1
     3    1   47 1
     4    1   48 1
     5    2    3 1
     6    2    4 1
     7    2   49 1
     8    3   50 1
     9    3   51 1
    10    3   52 1
    11    4    5 1
    12    4   53 1
    13    4   54 1
    14    5    6 1
    15    5    7 1
    16    5   45 1
    17    7    8 1
    18    7    9 1
    19    7   44 1
    20    9   10 1
    21    9   11 1
    22    9   18 1
    23   11   12 1
    24   11   55 1
    25   11   56 1
    26   12   17 1
    27   12   13 1
    28   12   57 1
    29   13   14 1
    30   13   58 1
    31   13   59 1
    32   14   15 1
    33   14   60 1
    34   14   61 1
    35   15   16 1
    36   15   62 1
    37   15   63 1
    38   16   17 1
    39   16   64 1
    40   16   65 1
    41   17   66 1
    42   17   67 1
    43   18   19 am
    44   18   68 1
    45   19   20 2
    46   19   21 1
    47   21   22 1
    48   21   23 1
    49   21   27 1
    50   23   24 1
    51   23   69 1
    52   23   70 1
    53   24   25 1
    54   24   26 1
    55   24   71 1
    56   25   72 1
    57   25   73 1
    58   25   74 1
    59   26   75 1
    60   26   76 1
    61   26   77 1
    62   27   28 1
    63   27   78 1
    64   28   29 1
    65   28   30 1
    66   28   37 1
    67   30   31 1
    68   30   79 1
    69   30   80 1
    70   31   36 ar
    71   31   32 ar
    72   32   33 ar
    73   32   81 1
    74   33   34 ar
    75   33   82 1
    76   34   35 ar
    77   34   83 1
    78   35   36 ar
    79   35   84 1
    80   36   85 1
    81   37   38 2
    82   37   39 1
    83   39   40 1
    84   40   41 1
    85   40   42 1
    86   40   43 1
    87   41   86 1
    88   41   87 1
    89   41   88 1
    90   42   89 1
    91   42   90 1
    92   42   91 1
    93   43   92 1
    94   43   93 1
    95   43   94 1
    96   44   95 1
    97   45   96 1
@<TRIPOS>MOLECULE
CHEMBL422673
   82    83     0     0     0
SMALL
USER_CHARGES

@<TRIPOS>ATOM
      1 C1         -0.0187    1.5258    0.0104 C.3       1 <0>        -0.1598
      2 C2          0.0021   -0.0041    0.0020 C.3       1 <0>         0.1298
      3 H1         -1.0205   -0.3814    0.0098 H         1 <0>         0.1124
      4 C3          0.7074   -0.4901   -1.2379 C.2       1 <0>         0.5153
      5 O1          1.7039   -1.1744   -1.1398 O.2       1 <0>        -0.5060
      6 N1          0.2309   -0.1642   -2.4557 N.am      1 <0>        -0.7250
      7 C4          0.9167   -0.6367   -3.6611 C.3       1 <0>         0.1281
      8 H2          1.9916   -0.6597   -3.4821 H         1 <0>         0.1023
      9 C5          0.4270   -2.0441   -4.0078 C.3       1 <0>        -0.0884
     10 C6          0.8341   -3.0006   -2.9167 C.ar      1 <0>        -0.0657
     11 C7          2.0517   -3.6515   -2.9869 C.ar      1 <0>        -0.1075
     12 C8          2.4251   -4.5288   -1.9861 C.ar      1 <0>        -0.1120
     13 C9          1.5812   -4.7550   -0.9148 C.ar      1 <0>        -0.1197
     14 C10         0.3641   -4.1034   -0.8442 C.ar      1 <0>        -0.1096
     15 C11        -0.0075   -3.2228   -1.8428 C.ar      1 <0>        -0.1098
     16 C12         0.6135    0.3098   -4.8244 C.3       1 <0>         0.1202
     17 H3          1.1237   -0.0417   -5.7212 H         1 <0>         0.1236
     18 C13         1.1032    1.7172   -4.4776 C.3       1 <0>        -0.1267
     19 S1          0.7438    2.8393   -5.8569 S.3       1 <0>        -0.2283
     20 C14         1.3775    4.4432   -5.2943 C.3       1 <0>        -0.0667
     21 C15         2.8976    4.3648   -5.1385 C.3       1 <0>        -0.1494
     22 C16         1.0252    5.5200   -6.3226 C.3       1 <0>        -0.1339
     23 O2         -0.7957    0.3400   -5.0590 O.3       1 <0>        -0.5372
     24 N2          0.7106   -0.4894    1.1889 N.am      1 <0>        -0.7123
     25 C17         0.0512   -0.6335    2.3554 C.2       1 <0>         0.5055
     26 O3         -1.1288   -0.3614    2.4226 O.2       1 <0>        -0.4999
     27 C18         0.7801   -1.1327    3.5763 C.3       1 <0>         0.1655
     28 H4          1.7730   -0.6848    3.6152 H         1 <0>         0.1162
     29 C19         0.9099   -2.6555    3.5056 C.3       1 <0>        -0.0965
     30 C20         1.7441   -3.1428    4.6623 C.ar      1 <0>        -0.0805
     31 C21         3.1163   -3.2457    4.5298 C.ar      1 <0>        -0.1163
     32 C22         3.8814   -3.6926    5.5908 C.ar      1 <0>        -0.1181
     33 C23         3.2745   -4.0362    6.7843 C.ar      1 <0>        -0.1204
     34 C24         1.9025   -3.9325    6.9170 C.ar      1 <0>        -0.1178
     35 C25         1.1377   -3.4814    5.8575 C.ar      1 <0>        -0.1044
     36 N3          0.0297   -0.7619    4.7787 N.am      1 <0>        -0.6994
     37 C26        -1.2319   -1.2045    4.9490 C.2       1 <0>         0.6587
     38 O4         -1.7469   -1.9111    4.1052 O.2       1 <0>        -0.5375
     39 O5         -1.9215   -0.8637    6.0540 O.3       1 <0>        -0.3615
     40 C27        -3.2534   -1.3684    6.1688 C.3       1 <0>         0.1381
     41 C28        -3.2218   -2.8980    6.1594 C.3       1 <0>        -0.1854
     42 C29        -3.8729   -0.8791    7.4795 C.3       1 <0>        -0.1410
     43 C30        -4.0917   -0.8684    4.9906 C.3       1 <0>        -0.1840
     44 H5          1.0039    1.9031    0.0027 H         1 <0>         0.0635
     45 H6         -0.5459    1.8868   -0.8726 H         1 <0>         0.0678
     46 H7         -0.5289    1.8773    0.9072 H         1 <0>         0.0750
     47 H8         -0.5660    0.3831   -2.5342 H         1 <0>         0.3958
     48 H9         -0.6591   -2.0386   -4.0996 H         1 <0>         0.0826
     49 H10         0.8699   -2.3605   -4.9522 H         1 <0>         0.0840
     50 H11         2.7110   -3.4748   -3.8239 H         1 <0>         0.1138
     51 H12         3.3760   -5.0378   -2.0413 H         1 <0>         0.1155
     52 H13         1.8727   -5.4410   -0.1332 H         1 <0>         0.1146
     53 H14        -0.2954   -4.2804   -0.0074 H         1 <0>         0.1130
     54 H15        -0.9568   -2.7110   -1.7858 H         1 <0>         0.1072
     55 H16         0.5930    2.0688   -3.5808 H         1 <0>         0.0825
     56 H17         2.1781    1.6942   -4.2987 H         1 <0>         0.0913
     57 H18         0.9265    4.6958   -4.3347 H         1 <0>         0.0843
     58 H19         3.3486    4.1122   -6.0982 H         1 <0>         0.0692
     59 H20         3.2784    5.3285   -4.8005 H         1 <0>         0.0650
     60 H21         3.1486    3.5977   -4.4059 H         1 <0>         0.0533
     61 H22        -0.0577    5.5759   -6.4336 H         1 <0>         0.0659
     62 H23         1.4060    6.4837   -5.9846 H         1 <0>         0.0715
     63 H24         1.4762    5.2674   -7.2822 H         1 <0>         0.0656
     64 H25        -1.3142    0.6439   -4.3014 H         1 <0>         0.3700
     65 H26         1.6544   -0.7070    1.1351 H         1 <0>         0.4084
     66 H27        -0.0807   -3.1074    3.5563 H         1 <0>         0.1054
     67 H28         1.3897   -2.9361    2.5680 H         1 <0>         0.0891
     68 H29         3.5904   -2.9772    3.5974 H         1 <0>         0.1223
     69 H30         4.9534   -3.7737    5.4871 H         1 <0>         0.1220
     70 H31         3.8723   -4.3861    7.6130 H         1 <0>         0.1210
     71 H32         1.4283   -4.2012    7.8494 H         1 <0>         0.1205
     72 H33         0.0662   -3.3968    5.9624 H         1 <0>         0.1149
     73 H34         0.4408   -0.1978    5.4523 H         1 <0>         0.4102
     74 H35        -2.6246   -3.2543    6.9988 H         1 <0>         0.0573
     75 H36        -4.2378   -3.2830    6.2470 H         1 <0>         0.0688
     76 H37        -2.7804   -3.2466    5.2257 H         1 <0>         0.0876
     77 H38        -3.8955    0.2106    7.4862 H         1 <0>         0.0656
     78 H39        -4.8889   -1.2641    7.5671 H         1 <0>         0.0796
     79 H40        -3.2758   -1.2354    8.3189 H         1 <0>         0.0654
     80 H41        -3.6503   -1.2169    4.0569 H         1 <0>         0.0933
     81 H42        -5.1076   -1.2533    5.0782 H         1 <0>         0.0656
     82 H43        -4.1142    0.2214    4.9973 H         1 <0>         0.0566
@<TRIPOS>BOND
     1    1    2 1
     2    1   44 1
     3    1   45 1
     4    1   46 1
     5    2    3 1
     6    2    4 1
     7    2   24 1
     8    4    5 2
     9    4    6 am
    10    6    7 1
    11    6   47 1
    12    7    8 1
    13    7    9 1
    14    7   16 1
    15    9   10 1
    16    9   48 1
    17    9   49 1
    18   10   15 ar
    19   10   11 ar
    20   11   12 ar
    21   11   50 1
    22   12   13 ar
    23   12   51 1
    24   13   14 ar
    25   13   52 1
    26   14   15 ar
    27   14   53 1
    28   15   54 1
    29   16   17 1
    30   16   18 1
    31   16   23 1
    32   18   19 1
    33   18   55 1
    34   18   56 1
    35   19   20 1
    36   20   21 1
    37   20   22 1
    38   20   57 1
    39   21   58 1
    40   21   59 1
    41   21   60 1
    42   22   61 1
    43   22   62 1
    44   22   63 1
    45   23   64 1
    46   24   25 am
    47   24   65 1
    48   25   26 2
    49   25   27 1
    50   27   28 1
    51   27   29 1
    52   27   36 1
    53   29   30 1
    54   29   66 1
    55   29   67 1
    56   30   35 ar
    57   30   31 ar
    58   31   32 ar
    59   31   68 1
    60   32   33 ar
    61   32   69 1
    62   33   34 ar
    63   33   70 1
    64   34   35 ar
    65   34   71 1
    66   35   72 1
    67   36   37 am
    68   36   73 1
    69   37   38 2
    70   37   39 1
    71   39   40 1
    72   40   41 1
    73   40   42 1
    74   40   43 1
    75   41   74 1
    76   41   75 1
    77   41   76 1
    78   42   77 1
    79   42   78 1
    80   42   79 1
    81   43   80 1
    82   43   81 1
    83   43   82 1
@<TRIPOS>MOLECULE
CHEMBL558212
   88    89     0     0     0
SMALL
USER_CHARGES

@<TRIPOS>ATOM
      1 C1         16.0163    2.9055   -4.1806 C.3       1 <0>        -0.0748
      2 C2         14.8697    2.4853   -5.0637 C.2       1 <0>         0.2526
      3 N1         14.8289    1.3758   -5.8101 N.2       1 <0>        -0.5396
      4 C3         13.6965    1.3107   -6.4538 C.2       1 <0>         0.2887
      5 O1         12.9703    2.3895   -6.1348 O.3       1 <0>        -0.1058
      6 N2         13.7553    3.1402   -5.2203 N.2       1 <0>        -0.3373
      7 C4         13.2775    0.2107   -7.3947 C.3       1 <0>        -0.0332
      8 C5         12.5498   -0.8824   -6.6095 C.3       1 <0>        -0.1310
      9 C6         12.1244   -1.9992   -7.5648 C.3       1 <0>         0.1195
     10 N3         11.4276   -3.0459   -6.8130 N.am      1 <0>        -0.7248
     11 C7         10.9591   -4.1362   -7.4520 C.2       1 <0>         0.5174
     12 O2         11.1144   -4.2509   -8.6493 O.2       1 <0>        -0.5440
     13 C8         10.2423   -5.2128   -6.6786 C.3       1 <0>        -0.1051
     14 H1          9.3600   -4.7894   -6.1989 H         1 <0>         0.1120
     15 C9         11.1786   -5.7835   -5.6115 C.3       1 <0>        -0.1541
     16 C10         9.8169   -6.3297   -7.6339 C.3       1 <0>        -0.1546
     17 C11         8.9820   -7.3614   -6.8728 C.3       1 <0>         0.0873
     18 H2          9.5440   -7.7183   -6.0097 H         1 <0>         0.1496
     19 C12         8.6617   -8.5392   -7.7954 C.3       1 <0>        -0.0125
     20 H3          9.5849   -9.0544   -8.0607 H         1 <0>         0.1560
     21 C13         7.7243   -9.5107   -7.0755 C.3       1 <0>        -0.1423
     22 C14         7.5264  -10.7604   -7.9357 C.3       1 <0>        -0.0886
     23 H4          7.1702  -10.4686   -8.9237 H         1 <0>         0.0650
     24 C15         8.8577  -11.5018   -8.0720 C.3       1 <0>        -0.0811
     25 C16         8.6963  -12.6517   -9.0327 C.ar      1 <0>        -0.0925
     26 C17         8.3170  -13.8952   -8.5625 C.ar      1 <0>        -0.1060
     27 C18         8.1676  -14.9532   -9.4397 C.ar      1 <0>        -0.1680
     28 C19         8.3977  -14.7684  -10.7935 C.ar      1 <0>         0.1080
     29 C20         8.7790  -13.5166  -11.2668 C.ar      1 <0>         0.1071
     30 C21         8.9223  -12.4592  -10.3828 C.ar      1 <0>        -0.1771
     31 O3          9.0060  -13.3303  -12.5947 O.3       1 <0>        -0.2975
     32 C22         9.3944  -12.0189  -13.0087 C.3       1 <0>         0.0682
     33 C23         9.6035  -12.0035  -14.5243 C.3       1 <0>        -0.1254
     34 C24        10.0194  -10.5994  -14.9676 C.3       1 <0>         0.0685
     35 O4         10.2146  -10.5851  -16.3831 O.3       1 <0>        -0.3870
     36 C25        10.6073   -9.3132  -16.9028 C.3       1 <0>         0.0308
     37 O5          8.2516  -15.8082  -11.6577 O.3       1 <0>        -0.3037
     38 C26         7.8584  -17.0642  -11.1010 C.3       1 <0>         0.0239
     39 C27         6.4971  -11.6780   -7.2729 C.3       1 <0>        -0.0932
     40 C28         6.9419  -11.9950   -5.8437 C.3       1 <0>        -0.1590
     41 C29         5.1366  -10.9788   -7.2404 C.3       1 <0>        -0.1560
     42 N4          8.0101   -8.0429   -9.0148 N.4       1 <0>        -0.6416
     43 O6          7.7645   -6.7571   -6.4316 O.3       1 <0>        -0.5314
     44 H5         15.8778    2.4891   -3.1828 H         1 <0>         0.0984
     45 H6         16.9523    2.5379   -4.6010 H         1 <0>         0.0992
     46 H7         16.0479    3.9933   -4.1192 H         1 <0>         0.0936
     47 H8         12.6105    0.6173   -8.1549 H         1 <0>         0.1104
     48 H9         14.1599   -0.2128   -7.8744 H         1 <0>         0.1196
     49 H10        13.2168   -1.2890   -5.8493 H         1 <0>         0.0845
     50 H11        11.6674   -0.4589   -6.1298 H         1 <0>         0.0812
     51 H12        11.4574   -1.5927   -8.3250 H         1 <0>         0.0770
     52 H13        13.0068   -2.4227   -8.0446 H         1 <0>         0.0781
     53 H14        11.3034   -2.9542   -5.8554 H         1 <0>         0.4050
     54 H15        12.0610   -6.2070   -6.0913 H         1 <0>         0.0667
     55 H16        11.4817   -4.9879   -4.9310 H         1 <0>         0.0703
     56 H17        10.6602   -6.5623   -5.0522 H         1 <0>         0.0729
     57 H18         9.2226   -5.9078   -8.4444 H         1 <0>         0.0745
     58 H19        10.7031   -6.8122   -8.0463 H         1 <0>         0.0983
     59 H20         8.1607   -9.7943   -6.1177 H         1 <0>         0.1208
     60 H21         6.7611   -9.0290   -6.9075 H         1 <0>         0.1027
     61 H22         9.6178  -10.8175   -8.4488 H         1 <0>         0.0670
     62 H23         9.1629  -11.8827   -7.0974 H         1 <0>         0.0905
     63 H24         8.1374  -14.0405   -7.5075 H         1 <0>         0.1288
     64 H25         7.8719  -15.9238   -9.0697 H         1 <0>         0.1391
     65 H26         9.2146  -11.4858  -10.7481 H         1 <0>         0.1262
     66 H27         8.6128  -11.3074  -12.7425 H         1 <0>         0.0573
     67 H28        10.3235  -11.7410  -12.5110 H         1 <0>         0.0622
     68 H29        10.3852  -12.7150  -14.7905 H         1 <0>         0.0878
     69 H30         8.6744  -12.2814  -15.0220 H         1 <0>         0.0864
     70 H31         9.2377   -9.8880  -14.7014 H         1 <0>         0.0478
     71 H32        10.9484  -10.3216  -14.4698 H         1 <0>         0.0508
     72 H33         9.8378   -8.5750  -16.6768 H         1 <0>         0.0422
     73 H34        11.5486   -9.0087  -16.4452 H         1 <0>         0.0436
     74 H35        10.7351   -9.3858  -17.9828 H         1 <0>         0.0924
     75 H36         7.7786  -17.8052  -11.8964 H         1 <0>         0.1061
     76 H37         8.6037  -17.3891  -10.3751 H         1 <0>         0.0579
     77 H38         6.8929  -16.9562  -10.6068 H         1 <0>         0.0572
     78 H39         6.4161  -12.6041   -7.8421 H         1 <0>         0.0877
     79 H40         6.9409  -11.0799   -5.2515 H         1 <0>         0.0585
     80 H41         6.2543  -12.7153   -5.4005 H         1 <0>         0.0624
     81 H42         7.9473  -12.4155   -5.8610 H         1 <0>         0.0611
     82 H43         4.7897  -10.8113   -8.2601 H         1 <0>         0.0537
     83 H44         4.4187  -11.6051   -6.7107 H         1 <0>         0.0644
     84 H45         5.2320  -10.0219   -6.7273 H         1 <0>         0.0557
     85 H46         7.1899   -7.5109   -8.7651 H         1 <0>         0.4285
     86 H47         8.6519   -7.4528   -9.5228 H         1 <0>         0.4374
     87 H48         7.2124   -6.4160   -7.1485 H         1 <0>         0.3695
     88 H49         7.7410   -8.8240   -9.5940 H         1 <0>         0.4369
@<TRIPOS>BOND
     1    1    2 1
     2    1   44 1
     3    1   45 1
     4    1   46 1
     5    2    6 2
     6    2    3 1
     7    3    4 2
     8    4    5 1
     9    4    7 1
    10    5    6 1
    11    7    8 1
    12    7   47 1
    13    7   48 1
    14    8    9 1
    15    8   49 1
    16    8   50 1
    17    9   10 1
    18    9   51 1
    19    9   52 1
    20   10   11 am
    21   10   53 1
    22   11   12 2
    23   11   13 1
    24   13   14 1
    25   13   15 1
    26   13   16 1
    27   15   54 1
    28   15   55 1
    29   15   56 1
    30   16   17 1
    31   16   57 1
    32   16   58 1
    33   17   18 1
    34   17   19 1
    35   17   43 1
    36   19   20 1
    37   19   21 1
    38   19   42 1
    39   21   22 1
    40   21   59 1
    41   21   60 1
    42   22   23 1
    43   22   24 1
    44   22   39 1
    45   24   25 1
    46   24   61 1
    47   24   62 1
    48   25   30 ar
    49   25   26 ar
    50   26   27 ar
    51   26   63 1
    52   27   28 ar
    53   27   64 1
    54   28   29 ar
    55   28   37 1
    56   29   30 ar
    57   29   31 1
    58   30   65 1
    59   31   32 1
    60   32   33 1
    61   32   66 1
    62   32   67 1
    63   33   34 1
    64   33   68 1
    65   33   69 1
    66   34   35 1
    67   34   70 1
    68   34   71 1
    69   35   36 1
    70   36   72 1
    71   36   73 1
    72   36   74 1
    73   37   38 1
    74   38   75 1
    75   38   76 1
    76   38   77 1
    77   39   40 1
    78   39   41 1
    79   39   78 1
    80   40   79 1
    81   40   80 1
    82   40   81 1
    83   41   82 1
    84   41   83 1
    85   41   84 1
    86   42   85 1
    87   42   86 1
    88   42   88 1
    89   43   87 1
@<TRIPOS>MOLECULE
CHEMBL285146
   83    87     0     0     0
SMALL
USER_CHARGES

@<TRIPOS>ATOM
      1 C1         -0.0173    1.4248    0.0099 C.3       1 <0>         0.0264
      2 O1          0.0021   -0.0041    0.0020 O.3       1 <0>        -0.3191
      3 C2          0.6058   -0.6071   -1.0557 C.ar      1 <0>         0.1309
      4 C3          1.1731    0.1608   -2.0626 C.ar      1 <0>        -0.2068
      5 C4          1.7865   -0.4545   -3.1363 C.ar      1 <0>        -0.0782
      6 C5          1.8356   -1.8347   -3.2084 C.ar      1 <0>        -0.1571
      7 C6          1.2707   -2.6020   -2.2067 C.ar      1 <0>        -0.0597
      8 C7          0.6609   -1.9913   -1.1277 C.ar      1 <0>        -0.1257
      9 C8          0.0508   -2.8283   -0.0330 C.3       1 <0>         0.1186
     10 O2          0.2351   -4.2131   -0.3335 O.3       1 <0>        -0.3830
     11 C9         -0.3100   -5.0981    0.6472 C.3       1 <0>         0.0703
     12 C10        -0.0559   -6.5465    0.2244 C.3       1 <0>        -0.1230
     13 C11        -0.6396   -7.4940    1.2744 C.3       1 <0>         0.0768
     14 O3         -0.4023   -8.8468    0.8796 O.3       1 <0>        -0.2985
     15 C12        -0.8601   -9.8194    1.7074 C.ar      1 <0>         0.3381
     16 C13        -0.6548  -11.1539    1.3805 C.ar      1 <0>        -0.1827
     17 C14        -1.1263  -12.1361    2.2336 C.ar      1 <0>        -0.0197
     18 C15        -1.7899  -11.7468    3.3892 C.ar      1 <0>        -0.1832
     19 C16        -1.9582  -10.4019    3.6507 C.ar      1 <0>         0.1451
     20 N1         -1.4927   -9.4879    2.8204 N.ar      1 <0>        -0.5350
     21 C17        -2.3212  -12.7814    4.3475 C.3       1 <0>        -0.0412
     22 H1         -2.0928  -13.7784    3.9710 H         1 <0>         0.1073
     23 C18        -1.6693  -12.5906    5.7201 C.3       1 <0>        -0.1403
     24 C19        -2.2711  -13.5922    6.7081 C.3       1 <0>        -0.0094
     25 N2         -3.7178  -13.3690    6.8166 N.4       1 <0>        -0.4998
     26 C20        -4.3591  -13.6202    5.5204 C.3       1 <0>        -0.0387
     27 C21        -3.8379  -12.6209    4.4851 C.3       1 <0>         0.0781
     28 H2         -4.0686  -11.6068    4.8114 H         1 <0>         0.0865
     29 O4         -4.4605  -12.8703    3.2233 O.3       1 <0>        -0.3468
     30 C22        -5.6740  -12.1435    3.0201 C.3       1 <0>         0.1081
     31 C23        -6.2410  -12.4811    1.6653 C.ar      1 <0>        -0.0711
     32 C24        -5.5718  -13.3889    0.8486 C.ar      1 <0>        -0.1997
     33 C25        -6.0588  -13.7171   -0.3844 C.ar      1 <0>         0.1509
     34 C26        -7.2564  -13.1300   -0.8402 C.ar      1 <0>        -0.0585
     35 C27        -7.7879  -13.4434   -2.1019 C.ar      1 <0>        -0.0862
     36 C28        -8.9471  -12.8573   -2.5090 C.ar      1 <0>        -0.1165
     37 C29        -9.6166  -11.9483   -1.6919 C.ar      1 <0>        -0.0963
     38 C30        -9.1303  -11.6208   -0.4633 C.ar      1 <0>        -0.1100
     39 C31        -7.9372  -12.2064   -0.0093 C.ar      1 <0>        -0.0338
     40 C32        -7.4065  -11.8965    1.2591 C.ar      1 <0>         0.0752
     41 O5         -8.0491  -11.0168    2.0721 O.3       1 <0>        -0.3299
     42 C33        -7.6952   -9.6382    1.9447 C.3       1 <0>         0.0288
     43 O6         -5.3918  -14.6049   -1.1682 O.3       1 <0>        -0.3068
     44 C34        -4.1850  -15.1582   -0.6394 C.3       1 <0>         0.0273
     45 H3          1.0053    1.8021    0.0021 H         1 <0>         0.0574
     46 H4         -0.5445    1.7859   -0.8732 H         1 <0>         0.0574
     47 H5         -0.5275    1.7763    0.9067 H         1 <0>         0.1018
     48 H6          1.1347    1.2387   -2.0069 H         1 <0>         0.1308
     49 H7          2.2279    0.1427   -3.9204 H         1 <0>         0.1268
     50 H8          2.3157   -2.3139   -4.0487 H         1 <0>         0.1263
     51 H9          1.3100   -3.6796   -2.2654 H         1 <0>         0.1383
     52 H10         0.5347   -2.5947    0.9154 H         1 <0>         0.0640
     53 H11        -1.0148   -2.6109    0.0395 H         1 <0>         0.0638
     54 H12         0.1663   -4.9117    1.6097 H         1 <0>         0.0540
     55 H13        -1.3831   -4.9278    0.7338 H         1 <0>         0.0536
     56 H14        -0.5323   -6.7329   -0.7381 H         1 <0>         0.0843
     57 H15         1.0172   -6.7168    0.1378 H         1 <0>         0.0848
     58 H16        -0.1633   -7.3076    2.2369 H         1 <0>         0.0709
     59 H17        -1.7127   -7.3238    1.3610 H         1 <0>         0.0699
     60 H18        -0.1344  -11.4211    0.4727 H         1 <0>         0.1479
     61 H19        -0.9817  -13.1818    2.0054 H         1 <0>         0.1428
     62 H20        -2.4737  -10.0937    4.5483 H         1 <0>         0.1486
     63 H21        -0.5955  -12.7591    5.6396 H         1 <0>         0.1236
     64 H22        -1.8538  -11.5758    6.0727 H         1 <0>         0.0933
     65 H23        -2.0859  -14.6065    6.3547 H         1 <0>         0.1353
     66 H24        -1.8091  -13.4592    7.6864 H         1 <0>         0.1401
     67 H25        -4.1028  -13.9949    7.5080 H         1 <0>         0.4366
     68 H26        -4.1294  -14.6339    5.1922 H         1 <0>         0.1425
     69 H27        -5.4386  -13.5079    5.6217 H         1 <0>         0.1365
     70 H28        -6.3934  -12.4143    3.7929 H         1 <0>         0.0734
     71 H29        -5.4700  -11.0740    3.0724 H         1 <0>         0.0697
     72 H30        -4.6538  -13.8399    1.1953 H         1 <0>         0.1416
     73 H31        -7.2793  -14.1456   -2.7459 H         1 <0>         0.1369
     74 H32        -9.3538  -13.1000   -3.4796 H         1 <0>         0.1308
     75 H33       -10.5344  -11.4969   -2.0385 H         1 <0>         0.1303
     76 H34        -9.6593  -10.9142    0.1591 H         1 <0>         0.1336
     77 H35        -8.2800   -9.0464    2.6488 H         1 <0>         0.0989
     78 H36        -6.6338   -9.5142    2.1597 H         1 <0>         0.0422
     79 H37        -7.9017   -9.3024    0.9285 H         1 <0>         0.0524
     80 H38        -3.4756  -14.3558   -0.4368 H         1 <0>         0.0573
     81 H39        -4.4045  -15.6914    0.2856 H         1 <0>         0.0567
     82 H40        -3.7543  -15.8495   -1.3638 H         1 <0>         0.1054
     83 H41        -3.8899  -12.4150    7.0965 H         1 <0>         0.4282
@<TRIPOS>BOND
     1    1    2 1
     2    1   45 1
     3    1   46 1
     4    1   47 1
     5    2    3 1
     6    3    8 ar
     7    3    4 ar
     8    4    5 ar
     9    4   48 1
    10    5    6 ar
    11    5   49 1
    12    6    7 ar
    13    6   50 1
    14    7    8 ar
    15    7   51 1
    16    8    9 1
    17    9   10 1
    18    9   52 1
    19    9   53 1
    20   10   11 1
    21   11   12 1
    22   11   54 1
    23   11   55 1
    24   12   13 1
    25   12   56 1
    26   12   57 1
    27   13   14 1
    28   13   58 1
    29   13   59 1
    30   14   15 1
    31   15   20 ar
    32   15   16 ar
    33   16   17 ar
    34   16   60 1
    35   17   18 ar
    36   17   61 1
    37   18   19 ar
    38   18   21 1
    39   19   20 ar
    40   19   62 1
    41   21   22 1
    42   21   27 1
    43   21   23 1
    44   23   24 1
    45   23   63 1
    46   23   64 1
    47   24   25 1
    48   24   65 1
    49   24   66 1
    50   25   26 1
    51   25   67 1
    52   25   83 1
    53   26   27 1
    54   26   68 1
    55   26   69 1
    56   27   28 1
    57   27   29 1
    58   29   30 1
    59   30   31 1
    60   30   70 1
    61   30   71 1
    62   31   40 ar
    63   31   32 ar
    64   32   33 ar
    65   32   72 1
    66   33   34 ar
    67   33   43 1
    68   34   39 ar
    69   34   35 ar
    70   35   36 ar
    71   35   73 1
    72   36   37 ar
    73   36   74 1
    74   37   38 ar
    75   37   75 1
    76   38   39 ar
    77   38   76 1
    78   39   40 ar
    79   40   41 1
    80   41   42 1
    81   42   77 1
    82   42   78 1
    83   42   79 1
    84   43   44 1
    85   44   80 1
    86   44   81 1
    87   44   82 1
@<TRIPOS>MOLECULE
CHEMBL297894
   84    85     0     0     0
SMALL
USER_CHARGES

@<TRIPOS>ATOM
      1 C1         -0.9774    1.0795   -0.5143 C.3       1 <0>        -0.1530
      2 C2         -0.8008   -0.4388   -0.4469 C.3       1 <0>         0.0588
      3 O1         -0.0705   -0.8847   -1.5915 O.3       1 <0>        -0.3486
      4 C3          0.1712   -2.2017   -1.6850 C.2       1 <0>         0.4287
      5 O2         -0.2241   -2.9512   -0.8237 O.2       1 <0>        -0.4999
      6 C4          0.9357   -2.7455   -2.8644 C.3       1 <0>         0.1002
      7 C5          0.1844   -2.4150   -4.1555 C.3       1 <0>        -0.0945
      8 C6          1.0198   -2.8563   -5.3590 C.3       1 <0>        -0.0715
      9 C7          0.2797   -2.5308   -6.6307 C.ar      1 <0>        -0.0806
     10 C8         -0.5888   -3.4548   -7.1809 C.ar      1 <0>        -0.1134
     11 C9         -1.2676   -3.1562   -8.3475 C.ar      1 <0>        -0.1191
     12 C10        -1.0783   -1.9334   -8.9636 C.ar      1 <0>        -0.1259
     13 C11        -0.2104   -1.0090   -8.4130 C.ar      1 <0>        -0.1200
     14 C12         0.4651   -1.3059   -7.2441 C.ar      1 <0>        -0.1190
     15 N1          1.0665   -4.2028   -2.7333 N.3       1 <0>        -0.6293
     16 C13         2.2244   -4.5547   -1.9006 C.3       1 <0>         0.0620
     17 H1          3.0268   -3.8371   -2.0722 H         1 <0>         0.1011
     18 C14         1.8199   -4.5242   -0.4254 C.3       1 <0>        -0.1795
     19 C15         2.7015   -5.9377   -2.2622 C.2       1 <0>         0.5228
     20 O3          2.1328   -6.5682   -3.1282 O.2       1 <0>        -0.4926
     21 N2          3.7600   -6.4739   -1.6231 N.am      1 <0>        -0.7273
     22 C16         4.2238   -7.8184   -1.9746 C.3       1 <0>         0.1200
     23 H2          3.3680   -8.4416   -2.2345 H         1 <0>         0.1077
     24 C17         5.1746   -7.7336   -3.1703 C.3       1 <0>        -0.1215
     25 C18         4.4079   -7.2362   -4.3973 C.3       1 <0>        -0.0804
     26 C19         3.3519   -8.2703   -4.7926 C.3       1 <0>        -0.1037
     27 C20         2.5852   -7.7729   -6.0197 C.3       1 <0>        -0.1101
     28 C21         3.5594   -7.5691   -7.1817 C.3       1 <0>        -0.1198
     29 C22         4.6154   -6.5349   -6.7864 C.3       1 <0>        -0.1153
     30 C23         5.3821   -7.0323   -5.5593 C.3       1 <0>        -0.1146
     31 C24         4.9584   -8.4327   -0.7814 C.3       1 <0>         0.0673
     32 H3          5.3034   -9.4330   -1.0429 H         1 <0>         0.1116
     33 C25         4.0075   -8.5176    0.4143 C.3       1 <0>         0.0775
     34 H4          3.6625   -7.5172    0.6758 H         1 <0>         0.1003
     35 C26         4.7422   -9.1319    1.6075 C.3       1 <0>        -0.1446
     36 C27         3.8173   -9.1408    2.8263 C.3       1 <0>        -0.0944
     37 C28         4.4974   -9.8849    3.9772 C.3       1 <0>        -0.1488
     38 C29         3.5222   -7.7015    3.2532 C.3       1 <0>        -0.1489
     39 O4          2.8857   -9.3345    0.0736 O.3       1 <0>        -0.5477
     40 O5          6.0803   -7.6158   -0.4408 O.3       1 <0>        -0.5440
     41 H5          0.0014    1.5588   -0.5301 H         1 <0>         0.0670
     42 H6         -1.5250    1.3417   -1.4195 H         1 <0>         0.0678
     43 H7         -1.5345    1.4195    0.3587 H         1 <0>         0.0799
     44 H8         -0.2532   -0.7011    0.4583 H         1 <0>         0.0663
     45 H9         -1.7797   -0.9181   -0.4312 H         1 <0>         0.0677
     46 H10         1.9269   -2.2931   -2.8948 H         1 <0>         0.1179
     47 H11        -0.7710   -2.9397   -4.1644 H         1 <0>         0.0723
     48 H12         0.0093   -1.3405   -4.2092 H         1 <0>         0.0805
     49 H13         1.9752   -2.3317   -5.3501 H         1 <0>         0.0687
     50 H14         1.1948   -3.9308   -5.3053 H         1 <0>         0.0929
     51 H15        -0.7367   -4.4102   -6.6995 H         1 <0>         0.1225
     52 H16        -1.9457   -3.8784   -8.7777 H         1 <0>         0.1200
     53 H17        -1.6081   -1.7003   -9.8754 H         1 <0>         0.1191
     54 H18        -0.0622   -0.0537   -8.8946 H         1 <0>         0.1197
     55 H19         1.1403   -0.5822   -6.8119 H         1 <0>         0.1198
     56 H20         0.2197   -4.6103   -2.3658 H         1 <0>         0.3638
     57 H21         1.0175   -5.2417   -0.2538 H         1 <0>         0.0685
     58 H22         2.6791   -4.7853    0.1925 H         1 <0>         0.0564
     59 H23         1.4748   -3.5239   -0.1638 H         1 <0>         0.0783
     60 H24         4.2148   -5.9697   -0.9305 H         1 <0>         0.3884
     61 H25         5.9843   -7.0404   -2.9422 H         1 <0>         0.0669
     62 H26         5.5886   -8.7207   -3.3761 H         1 <0>         0.0669
     63 H27         3.9200   -6.2903   -4.1621 H         1 <0>         0.0790
     64 H28         3.8398   -9.2162   -5.0279 H         1 <0>         0.0419
     65 H29         2.6578   -8.4155   -3.9648 H         1 <0>         0.0785
     66 H30         1.8328   -8.5097   -6.3013 H         1 <0>         0.0508
     67 H31         2.0972   -6.8270   -5.7844 H         1 <0>         0.0681
     68 H32         4.0473   -8.5149   -7.4169 H         1 <0>         0.0549
     69 H33         3.0132   -7.2147   -8.0558 H         1 <0>         0.0553
     70 H34         5.3094   -6.3897   -7.6142 H         1 <0>         0.0547
     71 H35         4.1275   -5.5890   -6.5511 H         1 <0>         0.0593
     72 H36         6.1344   -6.2956   -5.2778 H         1 <0>         0.0536
     73 H37         5.8700   -7.9782   -5.7946 H         1 <0>         0.0559
     74 H38         5.0357  -10.1536    1.3667 H         1 <0>         0.0656
     75 H39         5.6309   -8.5414    1.8302 H         1 <0>         0.0791
     76 H40         2.8840   -9.6425    2.5704 H         1 <0>         0.0760
     77 H41         5.4580   -9.4179    4.1945 H         1 <0>         0.0536
     78 H42         3.8636   -9.8413    4.8629 H         1 <0>         0.0548
     79 H43         4.6551  -10.9256    3.6941 H         1 <0>         0.0533
     80 H44         3.0377   -7.1714    2.4332 H         1 <0>         0.0533
     81 H45         2.8633   -7.7079    4.1214 H         1 <0>         0.0544
     82 H46         4.4555   -7.1998    3.5090 H         1 <0>         0.0530
     83 H47         3.1187  -10.2407   -0.1705 H         1 <0>         0.3746
     84 H48         5.8472   -6.7096   -0.1966 H         1 <0>         0.3692
@<TRIPOS>BOND
     1    1    2 1
     2    1   41 1
     3    1   42 1
     4    1   43 1
     5    2    3 1
     6    2   44 1
     7    2   45 1
     8    3    4 1
     9    4    5 2
    10    4    6 1
    11    6    7 1
    12    6   15 1
    13    6   46 1
    14    7    8 1
    15    7   47 1
    16    7   48 1
    17    8    9 1
    18    8   49 1
    19    8   50 1
    20    9   14 ar
    21    9   10 ar
    22   10   11 ar
    23   10   51 1
    24   11   12 ar
    25   11   52 1
    26   12   13 ar
    27   12   53 1
    28   13   14 ar
    29   13   54 1
    30   14   55 1
    31   15   16 1
    32   15   56 1
    33   16   17 1
    34   16   18 1
    35   16   19 1
    36   18   57 1
    37   18   58 1
    38   18   59 1
    39   19   20 2
    40   19   21 am
    41   21   22 1
    42   21   60 1
    43   22   23 1
    44   22   24 1
    45   22   31 1
    46   24   25 1
    47   24   61 1
    48   24   62 1
    49   25   30 1
    50   25   26 1
    51   25   63 1
    52   26   27 1
    53   26   64 1
    54   26   65 1
    55   27   28 1
    56   27   66 1
    57   27   67 1
    58   28   29 1
    59   28   68 1
    60   28   69 1
    61   29   30 1
    62   29   70 1
    63   29   71 1
    64   30   72 1
    65   30   73 1
    66   31   32 1
    67   31   33 1
    68   31   40 1
    69   33   34 1
    70   33   35 1
    71   33   39 1
    72   35   36 1
    73   35   74 1
    74   35   75 1
    75   36   37 1
    76   36   38 1
    77   36   76 1
    78   37   77 1
    79   37   78 1
    80   37   79 1
    81   38   80 1
    82   38   81 1
    83   38   82 1
    84   39   83 1
    85   40   84 1
@<TRIPOS>MOLECULE
CHEMBL297894__1
   85    86     0     0     0
SMALL
USER_CHARGES

@<TRIPOS>ATOM
      1 C1          0.5467    1.0915   -0.2641 C.3       1 <0>        -0.1577
      2 C2          1.1094   -0.3313   -0.2614 C.3       1 <0>         0.0589
      3 O1          1.2872   -0.7706    1.0867 O.3       1 <0>        -0.3310
      4 C3          1.7769   -2.0076    1.2649 C.2       1 <0>         0.4565
      5 O2          2.0458   -2.6946    0.3080 O.2       1 <0>        -0.4768
      6 C4          1.9914   -2.5396    2.6585 C.3       1 <0>         0.0364
      7 C5          3.4531   -2.3365    3.0626 C.3       1 <0>        -0.1374
      8 C6          3.6431   -2.7615    4.5200 C.3       1 <0>        -0.0857
      9 C7          5.0827   -2.5615    4.9180 C.ar      1 <0>        -0.1043
     10 C8          5.9979   -3.5817    4.7375 C.ar      1 <0>        -0.1143
     11 C9          7.3185   -3.3982    5.1025 C.ar      1 <0>        -0.1144
     12 C10         7.7240   -2.1944    5.6477 C.ar      1 <0>        -0.1088
     13 C11         6.8091   -1.1739    5.8274 C.ar      1 <0>        -0.1142
     14 C12         5.4894   -1.3558    5.4584 C.ar      1 <0>        -0.1107
     15 N1          1.6690   -3.9724    2.6907 N.4       1 <0>        -0.4853
     16 C13         0.2170   -4.1507    2.5573 C.3       1 <0>        -0.0049
     17 H1         -0.2941   -3.5382    3.3001 H         1 <0>         0.1689
     18 C14        -0.2225   -3.7244    1.1551 C.3       1 <0>        -0.1880
     19 C15        -0.1332   -5.6003    2.7745 C.2       1 <0>         0.4955
     20 O3          0.7408   -6.4055    3.0165 O.2       1 <0>        -0.4895
     21 N2         -1.4176   -6.0018    2.6996 N.am      1 <0>        -0.6862
     22 C16        -1.7580   -7.4110    2.9108 C.3       1 <0>         0.1151
     23 H2         -1.0946   -7.8361    3.6639 H         1 <0>         0.1175
     24 C17        -3.2075   -7.5195    3.3882 C.3       1 <0>        -0.1345
     25 C18        -3.3497   -6.8311    4.7472 C.3       1 <0>        -0.0806
     26 C19        -2.5225   -7.5855    5.7901 C.3       1 <0>        -0.1178
     27 C20        -2.6647   -6.8971    7.1490 C.3       1 <0>        -0.1179
     28 C21        -4.1360   -6.8960    7.5687 C.3       1 <0>        -0.1240
     29 C22        -4.9632   -6.1416    6.5259 C.3       1 <0>        -0.1197
     30 C23        -4.8210   -6.8300    5.1669 C.3       1 <0>        -0.1170
     31 C24        -1.5952   -8.1774    1.5966 C.3       1 <0>         0.0578
     32 H3         -1.8804   -9.2188    1.7456 H         1 <0>         0.0713
     33 C25        -0.1355   -8.1082    1.1433 C.3       1 <0>         0.1208
     34 H4          0.1683   -7.0651    1.0543 H         1 <0>         0.0998
     35 C26         0.0104   -8.7994   -0.2138 C.3       1 <0>        -0.1473
     36 C27         1.4415   -8.6222   -0.7252 C.3       1 <0>        -0.0924
     37 C28         1.6225   -9.4169   -2.0200 C.3       1 <0>        -0.1510
     38 C29         1.7067   -7.1398   -0.9954 C.3       1 <0>        -0.1425
     39 O4          0.6933   -8.7654    2.1041 O.3       1 <0>        -0.5329
     40 O5         -2.4325   -7.5925    0.5972 O.3       1 <0>        -0.5536
     41 H5          1.2417    1.7581    0.2467 H         1 <0>         0.0732
     42 H6          0.4111    1.4267   -1.2924 H         1 <0>         0.0920
     43 H7         -0.4135    1.1034    0.2515 H         1 <0>         0.0715
     44 H8          0.4145   -0.9978   -0.7721 H         1 <0>         0.0789
     45 H9          2.0697   -0.3432   -0.7770 H         1 <0>         0.0814
     46 H10         1.3445   -2.0058    3.3547 H         1 <0>         0.1762
     47 H11         4.0946   -2.9409    2.4213 H         1 <0>         0.1047
     48 H12         3.7175   -1.2847    2.9534 H         1 <0>         0.1274
     49 H13         3.0015   -2.1571    5.1613 H         1 <0>         0.0944
     50 H14         3.3787   -3.8133    4.6292 H         1 <0>         0.0717
     51 H15         5.6810   -4.5222    4.3115 H         1 <0>         0.1213
     52 H16         8.0333   -4.1955    4.9621 H         1 <0>         0.1274
     53 H17         8.7556   -2.0513    5.9336 H         1 <0>         0.1277
     54 H18         7.1258   -0.2335    6.2537 H         1 <0>         0.1279
     55 H19         4.7753   -0.5572    5.5954 H         1 <0>         0.1244
     56 H20         2.1367   -4.4396    1.9284 H         1 <0>         0.4404
     57 H21        -1.2596   -4.0186    0.9943 H         1 <0>         0.1147
     58 H22        -0.1328   -2.6423    1.0596 H         1 <0>         0.0859
     59 H23         0.4119   -4.2085    0.4127 H         1 <0>         0.1036
     60 H24        -2.1166   -5.3577    2.5060 H         1 <0>         0.4077
     61 H25        -3.8652   -7.0364    2.6656 H         1 <0>         0.0744
     62 H26        -3.4812   -8.5703    3.4828 H         1 <0>         0.0894
     63 H27        -2.9921   -5.8041    4.6735 H         1 <0>         0.0671
     64 H28        -2.8800   -8.6125    5.8638 H         1 <0>         0.0658
     65 H29        -1.4743   -7.5863    5.4911 H         1 <0>         0.0606
     66 H30        -2.0754   -7.4345    7.8920 H         1 <0>         0.0634
     67 H31        -2.3071   -5.8701    7.0753 H         1 <0>         0.0567
     68 H32        -4.4936   -7.9230    7.6425 H         1 <0>         0.0639
     69 H33        -4.2373   -6.4056    8.5369 H         1 <0>         0.0634
     70 H34        -6.0114   -6.1408    6.8248 H         1 <0>         0.0651
     71 H35        -4.6057   -5.1146    6.4521 H         1 <0>         0.0591
     72 H36        -5.4103   -6.2926    4.4239 H         1 <0>         0.0627
     73 H37        -5.1786   -7.8570    5.2406 H         1 <0>         0.0658
     74 H38        -0.2079   -9.8618   -0.1058 H         1 <0>         0.0642
     75 H39        -0.6869   -8.3556   -0.9244 H         1 <0>         0.0802
     76 H40         2.1432   -8.9859    0.0255 H         1 <0>         0.0758
     77 H41         0.9208   -9.0532   -2.7706 H         1 <0>         0.0544
     78 H42         2.6420   -9.2907   -2.3843 H         1 <0>         0.0564
     79 H43         1.4335  -10.4730   -1.8275 H         1 <0>         0.0556
     80 H44         1.0050   -6.7761   -1.7460 H         1 <0>         0.0537
     81 H45         1.5778   -6.5736   -0.0729 H         1 <0>         0.0412
     82 H46         2.7262   -7.0136   -1.3597 H         1 <0>         0.0558
     83 H47         0.4792   -9.6992    2.2350 H         1 <0>         0.3703
     84 H48        -3.3739   -7.6017    0.8182 H         1 <0>         0.3805
     85 H49         1.9772   -4.3669    3.5668 H         1 <0>         0.4438
@<TRIPOS>BOND
     1    1    2 1
     2    1   41 1
     3    1   42 1
     4    1   43 1
     5    2    3 1
     6    2   44 1
     7    2   45 1
     8    3    4 1
     9    4    5 2
    10    4    6 1
    11    6    7 1
    12    6   15 1
    13    6   46 1
    14    7    8 1
    15    7   47 1
    16    7   48 1
    17    8    9 1
    18    8   49 1
    19    8   50 1
    20    9   14 ar
    21    9   10 ar
    22   10   11 ar
    23   10   51 1
    24   11   12 ar
    25   11   52 1
    26   12   13 ar
    27   12   53 1
    28   13   14 ar
    29   13   54 1
    30   14   55 1
    31   15   16 1
    32   15   56 1
    33   15   85 1
    34   16   17 1
    35   16   18 1
    36   16   19 1
    37   18   57 1
    38   18   58 1
    39   18   59 1
    40   19   20 2
    41   19   21 am
    42   21   22 1
    43   21   60 1
    44   22   23 1
    45   22   24 1
    46   22   31 1
    47   24   25 1
    48   24   61 1
    49   24   62 1
    50   25   30 1
    51   25   26 1
    52   25   63 1
    53   26   27 1
    54   26   64 1
    55   26   65 1
    56   27   28 1
    57   27   66 1
    58   27   67 1
    59   28   29 1
    60   28   68 1
    61   28   69 1
    62   29   30 1
    63   29   70 1
    64   29   71 1
    65   30   72 1
    66   30   73 1
    67   31   32 1
    68   31   33 1
    69   31   40 1
    70   33   34 1
    71   33   35 1
    72   33   39 1
    73   35   36 1
    74   35   74 1
    75   35   75 1
    76   36   37 1
    77   36   38 1
    78   36   76 1
    79   37   77 1
    80   37   78 1
    81   37   79 1
    82   38   80 1
    83   38   81 1
    84   38   82 1
    85   39   83 1
    86   40   84 1
@<TRIPOS>MOLECULE
CHEMBL297894__2
   84    85     0     0     0
SMALL
USER_CHARGES

@<TRIPOS>ATOM
      1 C1          0.9177    1.2055    0.3477 C.3       1 <0>        -0.1522
      2 C2          0.7744   -0.3167    0.2921 C.3       1 <0>         0.0623
      3 O1          1.4178   -0.8132   -0.8834 O.3       1 <0>        -0.3572
      4 C3          1.3829   -2.1401   -1.0829 C.2       1 <0>         0.4557
      5 O2          0.8246   -2.8564   -0.2860 O.2       1 <0>        -0.4739
      6 C4          2.0401   -2.7364   -2.3009 C.3       1 <0>         0.1040
      7 C5          3.5334   -2.4035   -2.2892 C.3       1 <0>        -0.1134
      8 C6          4.1769   -2.9006   -3.5852 C.3       1 <0>        -0.0810
      9 C7          5.6477   -2.5727   -3.5737 C.ar      1 <0>        -0.0839
     10 C8          6.0909   -1.3660   -4.0821 C.ar      1 <0>        -0.1159
     11 C9          7.4401   -1.0653   -4.0715 C.ar      1 <0>        -0.1186
     12 C10         8.3461   -1.9710   -3.5521 C.ar      1 <0>        -0.1224
     13 C11         7.9028   -3.1772   -3.0429 C.ar      1 <0>        -0.1176
     14 C12         6.5532   -3.4762   -3.0496 C.ar      1 <0>        -0.1147
     15 N1          1.8634   -4.1947   -2.2882 N.3       1 <0>        -0.6439
     16 C13         0.5720   -4.5737   -2.8770 C.3       1 <0>         0.0702
     17 H1         -0.1756   -3.8204   -2.6287 H         1 <0>         0.0986
     18 C14         0.7135   -4.6700   -4.3974 C.3       1 <0>        -0.1837
     19 C15         0.1416   -5.9091   -2.3269 C.2       1 <0>         0.5233
     20 O3          0.8417   -6.4881   -1.5235 O.2       1 <0>        -0.4877
     21 N2         -1.0212   -6.4599   -2.7279 N.am      1 <0>        -0.7291
     22 C16        -1.4396   -7.7581   -2.1931 C.3       1 <0>         0.1206
     23 H2         -0.5625   -8.3856   -2.0349 H         1 <0>         0.1074
     24 C17        -2.1657   -7.5514   -0.8623 C.3       1 <0>        -0.1214
     25 C18        -1.1882   -6.9847    0.1693 C.3       1 <0>        -0.0820
     26 C19        -0.0974   -8.0176    0.4595 C.3       1 <0>        -0.1017
     27 C20         0.8801   -7.4508    1.4911 C.3       1 <0>        -0.1111
     28 C21         0.1272   -7.1275    2.7832 C.3       1 <0>        -0.1185
     29 C22        -0.9636   -6.0946    2.4931 C.3       1 <0>        -0.1165
     30 C23        -1.9411   -6.6614    1.4614 C.3       1 <0>        -0.1125
     31 C24        -2.3816   -8.4397   -3.1876 C.3       1 <0>         0.0673
     32 H3         -2.6929   -9.4055   -2.7897 H         1 <0>         0.1114
     33 C25        -1.6556   -8.6463   -4.5184 C.3       1 <0>         0.0782
     34 H4         -1.3443   -7.6805   -4.9162 H         1 <0>         0.1002
     35 C26        -2.5976   -9.3279   -5.5128 C.3       1 <0>        -0.1450
     36 C27        -1.8998   -9.4599   -6.8680 C.3       1 <0>        -0.0942
     37 C28        -2.7830  -10.2693   -7.8197 C.3       1 <0>        -0.1490
     38 C29        -1.6590   -8.0678   -7.4554 C.3       1 <0>        -0.1487
     39 O4         -0.5057   -9.4690   -4.3109 O.3       1 <0>        -0.5482
     40 O5         -3.5315   -7.6170   -3.3950 O.3       1 <0>        -0.5440
     41 H5          1.9748    1.4702    0.3727 H         1 <0>         0.0669
     42 H6          0.4535    1.6466   -0.5344 H         1 <0>         0.0661
     43 H7          0.4270    1.5842    1.2442 H         1 <0>         0.0794
     44 H8          1.2386   -0.7579    1.1741 H         1 <0>         0.0671
     45 H9         -0.2827   -0.5815    0.2670 H         1 <0>         0.0653
     46 H10         1.5827   -2.3229   -3.1997 H         1 <0>         0.0855
     47 H11         3.6644   -1.3244   -2.2091 H         1 <0>         0.0893
     48 H12         4.0077   -2.8914   -1.4377 H         1 <0>         0.0836
     49 H13         4.0458   -3.9797   -3.6654 H         1 <0>         0.0742
     50 H14         3.7026   -2.4128   -4.4368 H         1 <0>         0.0765
     51 H15         5.3831   -0.6584   -4.4879 H         1 <0>         0.1214
     52 H16         7.7864   -0.1228   -4.4694 H         1 <0>         0.1218
     53 H17         9.4002   -1.7363   -3.5445 H         1 <0>         0.1211
     54 H18         8.6107   -3.8850   -2.6374 H         1 <0>         0.1221
     55 H19         6.2065   -4.4171   -2.6483 H         1 <0>         0.1227
     56 H20         2.6259   -4.6555   -2.7617 H         1 <0>         0.3625
     57 H21         1.4611   -5.4233   -4.6458 H         1 <0>         0.0695
     58 H22        -0.2447   -4.9512   -4.8344 H         1 <0>         0.0680
     59 H23         1.0248   -3.7042   -4.7953 H         1 <0>         0.0682
     60 H24        -1.5811   -5.9969   -3.3705 H         1 <0>         0.3872
     61 H25        -2.9906   -6.8531   -1.0031 H         1 <0>         0.0660
     62 H26        -2.5543   -8.5063   -0.5084 H         1 <0>         0.0662
     63 H27        -0.7326   -6.0755   -0.2230 H         1 <0>         0.0826
     64 H28        -0.5530   -8.9267    0.8518 H         1 <0>         0.0410
     65 H29         0.4390   -8.2479   -0.4610 H         1 <0>         0.0774
     66 H30         1.6572   -8.1867    1.6979 H         1 <0>         0.0499
     67 H31         1.3357   -6.5416    1.0989 H         1 <0>         0.0694
     68 H32        -0.3284   -8.0367    3.1755 H         1 <0>         0.0543
     69 H33         0.8236   -6.7237    3.5182 H         1 <0>         0.0541
     70 H34        -1.5000   -5.8643    3.4136 H         1 <0>         0.0533
     71 H35        -0.5080   -5.1854    2.1008 H         1 <0>         0.0622
     72 H36        -2.7182   -5.9255    1.2547 H         1 <0>         0.0523
     73 H37        -2.3967   -7.5705    1.8537 H         1 <0>         0.0545
     74 H38        -2.8621  -10.3183   -5.1424 H         1 <0>         0.0656
     75 H39        -3.5012   -8.7291   -5.6262 H         1 <0>         0.0791
     76 H40        -0.9450   -9.9691   -6.7370 H         1 <0>         0.0760
     77 H41        -3.7586   -9.7908   -7.9054 H         1 <0>         0.0536
     78 H42        -2.3128  -10.3141   -8.8021 H         1 <0>         0.0548
     79 H43        -2.9068  -11.2796   -7.4297 H         1 <0>         0.0533
     80 H44        -1.0298   -7.4912   -6.7774 H         1 <0>         0.0531
     81 H45        -1.1619   -8.1619   -8.4209 H         1 <0>         0.0544
     82 H46        -2.6138   -7.5587   -7.5864 H         1 <0>         0.0531
     83 H47        -0.7081  -10.3459   -3.9571 H         1 <0>         0.3750
     84 H48        -3.3291   -6.7401   -3.7488 H         1 <0>         0.3690
@<TRIPOS>BOND
     1    1    2 1
     2    1   41 1
     3    1   42 1
     4    1   43 1
     5    2    3 1
     6    2   44 1
     7    2   45 1
     8    3    4 1
     9    4    5 2
    10    4    6 1
    11    6    7 1
    12    6   15 1
    13    6   46 1
    14    7    8 1
    15    7   47 1
    16    7   48 1
    17    8    9 1
    18    8   49 1
    19    8   50 1
    20    9   14 ar
    21    9   10 ar
    22   10   11 ar
    23   10   51 1
    24   11   12 ar
    25   11   52 1
    26   12   13 ar
    27   12   53 1
    28   13   14 ar
    29   13   54 1
    30   14   55 1
    31   15   16 1
    32   15   56 1
    33   16   17 1
    34   16   18 1
    35   16   19 1
    36   18   57 1
    37   18   58 1
    38   18   59 1
    39   19   20 2
    40   19   21 am
    41   21   22 1
    42   21   60 1
    43   22   23 1
    44   22   24 1
    45   22   31 1
    46   24   25 1
    47   24   61 1
    48   24   62 1
    49   25   30 1
    50   25   26 1
    51   25   63 1
    52   26   27 1
    53   26   64 1
    54   26   65 1
    55   27   28 1
    56   27   66 1
    57   27   67 1
    58   28   29 1
    59   28   68 1
    60   28   69 1
    61   29   30 1
    62   29   70 1
    63   29   71 1
    64   30   72 1
    65   30   73 1
    66   31   32 1
    67   31   33 1
    68   31   40 1
    69   33   34 1
    70   33   35 1
    71   33   39 1
    72   35   36 1
    73   35   74 1
    74   35   75 1
    75   36   37 1
    76   36   38 1
    77   36   76 1
    78   37   77 1
    79   37   78 1
    80   37   79 1
    81   38   80 1
    82   38   81 1
    83   38   82 1
    84   39   83 1
    85   40   84 1
@<TRIPOS>MOLECULE
CHEMBL297894__3
   85    86     0     0     0
SMALL
USER_CHARGES

@<TRIPOS>ATOM
      1 C1         -1.4503    1.0401   -0.0784 C.3       1 <0>        -0.1579
      2 C2         -1.2037   -0.4699   -0.0775 C.3       1 <0>         0.0597
      3 O1         -0.4589   -0.8302    1.0876 O.3       1 <0>        -0.3238
      4 C3         -0.1572   -2.1292    1.2404 C.2       1 <0>         0.4609
      5 O2         -0.5136   -2.9337    0.4124 O.2       1 <0>        -0.4883
      6 C4          0.6261   -2.5842    2.4448 C.3       1 <0>         0.0312
      7 C5         -0.1456   -2.2317    3.7180 C.3       1 <0>        -0.1378
      8 C6          0.7037   -2.5800    4.9420 C.3       1 <0>        -0.0874
      9 C7         -0.0564   -2.2329    6.1961 C.ar      1 <0>        -0.1033
     10 C8          0.0652   -0.9729    6.7516 C.ar      1 <0>        -0.1102
     11 C9         -0.6320   -0.6544    7.9019 C.ar      1 <0>        -0.1141
     12 C10        -1.4512   -1.5958    8.4966 C.ar      1 <0>        -0.1090
     13 C11        -1.5734   -2.8555    7.9407 C.ar      1 <0>        -0.1145
     14 C12        -0.8795   -3.1726    6.7879 C.ar      1 <0>        -0.1147
     15 N1          0.8245   -4.0383    2.3791 N.4       1 <0>        -0.4810
     16 C13         1.6670   -4.3658    1.2212 C.3       1 <0>        -0.0149
     17 H1          1.2227   -3.9465    0.3184 H         1 <0>         0.1752
     18 C14         3.0639   -3.7754    1.4236 C.3       1 <0>        -0.1835
     19 C15         1.7697   -5.8628    1.0820 C.2       1 <0>         0.4996
     20 O3          1.1974   -6.5857    1.8698 O.2       1 <0>        -0.4937
     21 N2          2.4975   -6.3983    0.0819 N.am      1 <0>        -0.6867
     22 C16         2.5973   -7.8536   -0.0534 C.3       1 <0>         0.1149
     23 H2          1.6535   -8.3116    0.2427 H         1 <0>         0.1166
     24 C17         2.9028   -8.2107   -1.5094 C.3       1 <0>        -0.1340
     25 C18         1.7318   -7.7824   -2.3961 C.3       1 <0>        -0.0814
     26 C19         0.4904   -8.5989   -2.0310 C.3       1 <0>        -0.1171
     27 C20        -0.6806   -8.1706   -2.9176 C.3       1 <0>        -0.1185
     28 C21        -0.3242   -8.4132   -4.3856 C.3       1 <0>        -0.1233
     29 C22         0.9171   -7.5967   -4.7507 C.3       1 <0>        -0.1199
     30 C23         2.0882   -8.0250   -3.8640 C.3       1 <0>        -0.1164
     31 C24         3.7207   -8.3736    0.8458 C.3       1 <0>         0.0583
     32 H3          3.8164   -9.4521    0.7208 H         1 <0>         0.0708
     33 C25         3.3932   -8.0564    2.3063 C.3       1 <0>         0.1211
     34 H4          3.2251   -6.9851    2.4165 H         1 <0>         0.0998
     35 C26         4.5628   -8.4832    3.1955 C.3       1 <0>        -0.1477
     36 C27         4.2896   -8.0539    4.6384 C.3       1 <0>        -0.0925
     37 C28         5.3975   -8.5885    5.5481 C.3       1 <0>        -0.1513
     38 C29         4.2567   -6.5263    4.7184 C.3       1 <0>        -0.1443
     39 O4          2.2154   -8.7659    2.6952 O.3       1 <0>        -0.5332
     40 O5          4.9506   -7.7414    0.4853 O.3       1 <0>        -0.5540
     41 H5         -0.4947    1.5643   -0.0815 H         1 <0>         0.0727
     42 H6         -2.0184    1.3149   -0.9671 H         1 <0>         0.0922
     43 H7         -2.0136    1.3167    0.8128 H         1 <0>         0.0731
     44 H8         -2.1593   -0.9942   -0.0744 H         1 <0>         0.0807
     45 H9         -0.6404   -0.7466   -0.9688 H         1 <0>         0.0799
     46 H10         1.5953   -2.0855    2.4575 H         1 <0>         0.1830
     47 H11        -0.3702   -1.1651    3.7232 H         1 <0>         0.1330
     48 H12        -1.0758   -2.7991    3.7479 H         1 <0>         0.1014
     49 H13         0.9284   -3.6466    4.9368 H         1 <0>         0.0708
     50 H14         1.6340   -2.0127    4.9122 H         1 <0>         0.0945
     51 H15         0.7052   -0.2374    6.2869 H         1 <0>         0.1246
     52 H16        -0.5364    0.3298    8.3363 H         1 <0>         0.1278
     53 H17        -1.9953   -1.3472    9.3958 H         1 <0>         0.1275
     54 H18        -2.2132   -3.5911    8.4055 H         1 <0>         0.1269
     55 H19        -0.9780   -4.1555    6.3515 H         1 <0>         0.1208
     56 H20         1.2764   -4.3546    3.2240 H         1 <0>         0.4397
     57 H21         3.6891   -4.0184    0.5644 H         1 <0>         0.1161
     58 H22         2.9897   -2.6926    1.5243 H         1 <0>         0.0928
     59 H23         3.5082   -4.1946    2.3263 H         1 <0>         0.0941
     60 H24         2.9552   -5.8201   -0.5482 H         1 <0>         0.4071
     61 H25         3.8079   -7.6936   -1.8281 H         1 <0>         0.0742
     62 H26         3.0497   -9.2872   -1.5964 H         1 <0>         0.0890
     63 H27         1.5279   -6.7228   -2.2420 H         1 <0>         0.0675
     64 H28         0.6943   -9.6585   -2.1851 H         1 <0>         0.0654
     65 H29         0.2365   -8.4261   -0.9851 H         1 <0>         0.0605
     66 H30        -1.5650   -8.7523   -2.6575 H         1 <0>         0.0631
     67 H31        -0.8845   -7.1110   -2.7635 H         1 <0>         0.0573
     68 H32        -0.1204   -9.4728   -4.5397 H         1 <0>         0.0637
     69 H33        -1.1585   -8.1081   -5.0173 H         1 <0>         0.0631
     70 H34         1.1711   -7.7695   -5.7965 H         1 <0>         0.0649
     71 H35         0.7133   -6.5371   -4.5966 H         1 <0>         0.0590
     72 H36         2.9726   -7.4433   -4.1241 H         1 <0>         0.0624
     73 H37         2.2920   -9.0846   -4.0181 H         1 <0>         0.0656
     74 H38         4.6744   -9.5667    3.1538 H         1 <0>         0.0642
     75 H39         5.4790   -8.0097    2.8428 H         1 <0>         0.0807
     76 H40         3.3290   -8.4554    4.9613 H         1 <0>         0.0761
     77 H41         6.3581   -8.1870    5.2252 H         1 <0>         0.0546
     78 H42         5.2029   -8.2826    6.5760 H         1 <0>         0.0563
     79 H43         5.4209   -9.6768    5.4911 H         1 <0>         0.0558
     80 H44         5.2173   -6.1248    4.3956 H         1 <0>         0.0547
     81 H45         3.4674   -6.1454    4.0704 H         1 <0>         0.0407
     82 H46         4.0621   -6.2204    5.7464 H         1 <0>         0.0563
     83 H47         2.2932   -9.7270    2.6225 H         1 <0>         0.3705
     84 H48         5.2208   -7.8998   -0.4296 H         1 <0>         0.3808
     85 H49        -0.0698   -4.4958    2.2845 H         1 <0>         0.4409
@<TRIPOS>BOND
     1    1    2 1
     2    1   41 1
     3    1   42 1
     4    1   43 1
     5    2    3 1
     6    2   44 1
     7    2   45 1
     8    3    4 1
     9    4    5 2
    10    4    6 1
    11    6    7 1
    12    6   15 1
    13    6   46 1
    14    7    8 1
    15    7   47 1
    16    7   48 1
    17    8    9 1
    18    8   49 1
    19    8   50 1
    20    9   14 ar
    21    9   10 ar
    22   10   11 ar
    23   10   51 1
    24   11   12 ar
    25   11   52 1
    26   12   13 ar
    27   12   53 1
    28   13   14 ar
    29   13   54 1
    30   14   55 1
    31   15   16 1
    32   15   56 1
    33   15   85 1
    34   16   17 1
    35   16   18 1
    36   16   19 1
    37   18   57 1
    38   18   58 1
    39   18   59 1
    40   19   20 2
    41   19   21 am
    42   21   22 1
    43   21   60 1
    44   22   23 1
    45   22   24 1
    46   22   31 1
    47   24   25 1
    48   24   61 1
    49   24   62 1
    50   25   30 1
    51   25   26 1
    52   25   63 1
    53   26   27 1
    54   26   64 1
    55   26   65 1
    56   27   28 1
    57   27   66 1
    58   27   67 1
    59   28   29 1
    60   28   68 1
    61   28   69 1
    62   29   30 1
    63   29   70 1
    64   29   71 1
    65   30   72 1
    66   30   73 1
    67   31   32 1
    68   31   33 1
    69   31   40 1
    70   33   34 1
    71   33   35 1
    72   33   39 1
    73   35   36 1
    74   35   74 1
    75   35   75 1
    76   36   37 1
    77   36   38 1
    78   36   76 1
    79   37   77 1
    80   37   78 1
    81   37   79 1
    82   38   80 1
    83   38   81 1
    84   38   82 1
    85   39   83 1
    86   40   84 1
@<TRIPOS>MOLECULE
CHEMBL430539
   84    88     0     0     0
SMALL
USER_CHARGES

@<TRIPOS>ATOM
      1 C1         -0.0173    1.4248    0.0099 C.3       1 <0>         0.0263
      2 O1          0.0021   -0.0041    0.0020 O.3       1 <0>        -0.3190
      3 C2         -1.2003   -0.6375    0.0101 C.ar      1 <0>         0.1311
      4 C3         -2.3748    0.1012    0.0195 C.ar      1 <0>        -0.2067
      5 C4         -3.5956   -0.5449    0.0272 C.ar      1 <0>        -0.0781
      6 C5         -3.6478   -1.9268    0.0256 C.ar      1 <0>        -0.1573
      7 C6         -2.4790   -2.6650    0.0167 C.ar      1 <0>        -0.0598
      8 C7         -1.2554   -2.0235    0.0032 C.ar      1 <0>        -0.1257
      9 C8          0.0182   -2.8288   -0.0128 C.3       1 <0>         0.1184
     10 O2         -0.2992   -4.2221   -0.0174 O.3       1 <0>        -0.3827
     11 C9          0.8445   -5.0787   -0.0324 C.3       1 <0>         0.0685
     12 C10         0.3879   -6.5390   -0.0361 C.3       1 <0>        -0.1204
     13 C11         1.6124   -7.4562   -0.0522 C.3       1 <0>         0.0633
     14 O3          1.1859   -8.8201   -0.0556 O.3       1 <0>        -0.3091
     15 C12         2.1574   -9.7703   -0.0696 C.ar      1 <0>         0.1463
     16 C13         3.4938   -9.3976   -0.0741 C.ar      1 <0>        -0.2041
     17 C14         4.4794  -10.3654   -0.0878 C.ar      1 <0>        -0.0573
     18 C15         4.1351  -11.7045   -0.0976 C.ar      1 <0>        -0.1285
     19 C16         2.8040  -12.0784   -0.0936 C.ar      1 <0>        -0.0778
     20 C17         1.8146  -11.1145   -0.0737 C.ar      1 <0>        -0.1479
     21 C18         5.2124  -12.7581   -0.1131 C.3       1 <0>        -0.0469
     22 H1          6.1913  -12.2786   -0.1145 H         1 <0>         0.1035
     23 C19         5.0788  -13.6455    1.1278 C.3       1 <0>        -0.1394
     24 C20         6.1247  -14.7607    1.0658 C.3       1 <0>        -0.0101
     25 N1          5.9123  -15.5691   -0.1408 N.4       1 <0>        -0.4994
     26 C21         6.1096  -14.7407   -1.3364 C.3       1 <0>        -0.0395
     27 C22         5.0643  -13.6235   -1.3678 C.3       1 <0>         0.0794
     28 H2          4.0663  -14.0610   -1.3925 H         1 <0>         0.0865
     29 O4          5.2612  -12.8162   -2.5303 O.3       1 <0>        -0.3463
     30 C23         4.5312  -13.2592   -3.6761 C.3       1 <0>         0.1079
     31 C24         4.8120  -12.3402   -4.8369 C.ar      1 <0>        -0.0698
     32 C25         5.6807  -11.2655   -4.6662 C.ar      1 <0>        -0.1983
     33 C26         5.9571  -10.4140   -5.6977 C.ar      1 <0>         0.1496
     34 C27         5.3557  -10.6233   -6.9551 C.ar      1 <0>        -0.0585
     35 C28         5.6162   -9.7692   -8.0391 C.ar      1 <0>        -0.0866
     36 C29         5.0177  -10.0022   -9.2394 C.ar      1 <0>        -0.1168
     37 C30         4.1477  -11.0775   -9.4101 C.ar      1 <0>        -0.0968
     38 C31         3.8719  -11.9254   -8.3814 C.ar      1 <0>        -0.1097
     39 C32         4.4718  -11.7167   -7.1288 C.ar      1 <0>        -0.0338
     40 C33         4.2150  -12.5771   -6.0422 C.ar      1 <0>         0.0751
     41 O5          3.3741  -13.6344   -6.1920 O.3       1 <0>        -0.3301
     42 C34         1.9898  -13.4058   -5.9207 C.3       1 <0>         0.0284
     43 O6          6.8073   -9.3698   -5.5125 O.3       1 <0>        -0.3072
     44 C35         7.3782   -9.2210   -4.2109 C.3       1 <0>         0.0274
     45 H3          1.0053    1.8021    0.0021 H         1 <0>         0.1020
     46 H4         -0.5445    1.7859   -0.8732 H         1 <0>         0.0574
     47 H5         -0.5275    1.7763    0.9067 H         1 <0>         0.0575
     48 H6         -2.3345    1.1804    0.0211 H         1 <0>         0.1309
     49 H7         -4.5101    0.0296    0.0349 H         1 <0>         0.1268
     50 H8         -4.6033   -2.4302    0.0316 H         1 <0>         0.1261
     51 H9         -2.5225   -3.7442    0.0158 H         1 <0>         0.1382
     52 H10         0.5918   -2.5839   -0.9068 H         1 <0>         0.0641
     53 H11         0.6081   -2.5934    0.8731 H         1 <0>         0.0642
     54 H12         1.4351   -4.8805   -0.9268 H         1 <0>         0.0537
     55 H13         1.4515   -4.8901    0.8530 H         1 <0>         0.0540
     56 H14        -0.2028   -6.7372    0.8583 H         1 <0>         0.0858
     57 H15        -0.2191   -6.7277   -0.9215 H         1 <0>         0.0854
     58 H16         2.2030   -7.2580   -0.9466 H         1 <0>         0.0670
     59 H17         2.2193   -7.2675    0.8333 H         1 <0>         0.0676
     60 H18         3.7632   -8.3518   -0.0672 H         1 <0>         0.1317
     61 H19         5.5199  -10.0758   -0.0913 H         1 <0>         0.1252
     62 H20         2.5376  -13.1250   -0.1017 H         1 <0>         0.1215
     63 H21         0.7750  -11.4072   -0.0661 H         1 <0>         0.1342
     64 H22         5.2393  -13.0453    2.0235 H         1 <0>         0.1227
     65 H23         4.0810  -14.0834    1.1564 H         1 <0>         0.0933
     66 H24         7.1220  -14.3216    1.0376 H         1 <0>         0.1342
     67 H25         6.0324  -15.3942    1.9480 H         1 <0>         0.1391
     68 H26         6.5692  -16.3349   -0.1513 H         1 <0>         0.4358
     69 H27         7.1072  -14.3021   -1.3134 H         1 <0>         0.1414
     70 H28         6.0062  -15.3596   -2.2277 H         1 <0>         0.1355
     71 H29         4.8383  -14.2731   -3.9329 H         1 <0>         0.0721
     72 H30         3.4642  -13.2481   -3.4537 H         1 <0>         0.0710
     73 H31         6.1426  -11.1026   -3.7037 H         1 <0>         0.1417
     74 H32         6.2877   -8.9316   -7.9210 H         1 <0>         0.1364
     75 H33         5.2196   -9.3440  -10.0714 H         1 <0>         0.1304
     76 H34         3.6854  -11.2403  -10.3724 H         1 <0>         0.1301
     77 H35         3.1952  -12.7543   -8.5278 H         1 <0>         0.1337
     78 H36         1.4315  -14.3287   -6.0782 H         1 <0>         0.0986
     79 H37         1.8709  -13.0811   -4.8870 H         1 <0>         0.0433
     80 H38         1.6111  -12.6334   -6.5900 H         1 <0>         0.0523
     81 H39         8.0356   -8.3517   -4.1997 H         1 <0>         0.1048
     82 H40         6.5824   -9.0842   -3.4786 H         1 <0>         0.0571
     83 H41         7.9519  -10.1137   -3.9616 H         1 <0>         0.0568
     84 H42         4.9721  -15.9352   -0.1379 H         1 <0>         0.4278
@<TRIPOS>BOND
     1    1    2 1
     2    1   45 1
     3    1   46 1
     4    1   47 1
     5    2    3 1
     6    3    8 ar
     7    3    4 ar
     8    4    5 ar
     9    4   48 1
    10    5    6 ar
    11    5   49 1
    12    6    7 ar
    13    6   50 1
    14    7    8 ar
    15    7   51 1
    16    8    9 1
    17    9   10 1
    18    9   52 1
    19    9   53 1
    20   10   11 1
    21   11   12 1
    22   11   54 1
    23   11   55 1
    24   12   13 1
    25   12   56 1
    26   12   57 1
    27   13   14 1
    28   13   58 1
    29   13   59 1
    30   14   15 1
    31   15   20 ar
    32   15   16 ar
    33   16   17 ar
    34   16   60 1
    35   17   18 ar
    36   17   61 1
    37   18   19 ar
    38   18   21 1
    39   19   20 ar
    40   19   62 1
    41   20   63 1
    42   21   22 1
    43   21   27 1
    44   21   23 1
    45   23   24 1
    46   23   64 1
    47   23   65 1
    48   24   25 1
    49   24   66 1
    50   24   67 1
    51   25   26 1
    52   25   68 1
    53   25   84 1
    54   26   27 1
    55   26   69 1
    56   26   70 1
    57   27   28 1
    58   27   29 1
    59   29   30 1
    60   30   31 1
    61   30   71 1
    62   30   72 1
    63   31   40 ar
    64   31   32 ar
    65   32   33 ar
    66   32   73 1
    67   33   34 ar
    68   33   43 1
    69   34   39 ar
    70   34   35 ar
    71   35   36 ar
    72   35   74 1
    73   36   37 ar
    74   36   75 1
    75   37   38 ar
    76   37   76 1
    77   38   39 ar
    78   38   77 1
    79   39   40 ar
    80   40   41 1
    81   41   42 1
    82   42   78 1
    83   42   79 1
    84   42   80 1
    85   43   44 1
    86   44   81 1
    87   44   82 1
    88   44   83 1
@<TRIPOS>MOLECULE
CHEMBL537223
   87    88     0     0     0
SMALL
USER_CHARGES

@<TRIPOS>ATOM
      1 C1          1.1771   -0.2610    0.0719 C.3       1 <0>        -0.1560
      2 C2          1.0505   -0.2800   -1.4527 C.3       1 <0>        -0.0912
      3 C3          2.1719   -1.1345   -2.0470 C.3       1 <0>        -0.1584
      4 C4         -0.3046   -0.8726   -1.8446 C.3       1 <0>        -0.0886
      5 H1         -1.1021   -0.3011   -1.3699 H         1 <0>         0.0661
      6 C5         -0.4679   -0.8108   -3.3646 C.3       1 <0>        -0.0825
      7 C6         -0.5334    0.6291   -3.8045 C.ar      1 <0>        -0.0871
      8 C7         -1.7343    1.3121   -3.7531 C.ar      1 <0>        -0.1190
      9 C8         -1.7996    2.6330   -4.1556 C.ar      1 <0>        -0.1695
     10 C9         -0.6596    3.2755   -4.6114 C.ar      1 <0>         0.1044
     11 C10         0.5493    2.5882   -4.6627 C.ar      1 <0>         0.1109
     12 C11         0.6087    1.2657   -4.2532 C.ar      1 <0>        -0.1677
     13 O1          1.6708    3.2144   -5.1092 O.3       1 <0>        -0.2986
     14 C12         2.8760    2.4470   -5.1344 C.3       1 <0>         0.0644
     15 C13         4.0214    3.3133   -5.6620 C.3       1 <0>        -0.1216
     16 C14         5.3117    2.4916   -5.6889 C.3       1 <0>         0.0662
     17 O2          6.3815    3.3008   -6.1817 O.3       1 <0>        -0.3889
     18 C15         7.6389    2.6249   -6.2474 C.3       1 <0>         0.0309
     19 O3         -0.7222    4.5748   -5.0081 O.3       1 <0>        -0.3038
     20 C16        -1.9964    5.2168   -4.9285 C.3       1 <0>         0.0250
     21 C17        -0.3768   -2.3295   -1.3828 C.3       1 <0>        -0.1426
     22 C18        -1.7822   -2.8769   -1.6399 C.3       1 <0>        -0.0102
     23 H2         -2.0351   -2.7488   -2.6924 H         1 <0>         0.1552
     24 C19        -1.8234   -4.3641   -1.2829 C.3       1 <0>         0.0912
     25 H3         -1.1045   -4.9055   -1.8979 H         1 <0>         0.1473
     26 C20        -3.2288   -4.9116   -1.5400 C.3       1 <0>        -0.1559
     27 C21        -3.2319   -6.4272   -1.3311 C.3       1 <0>        -0.0971
     28 H4         -2.4350   -6.8772   -1.9231 H         1 <0>         0.1012
     29 C22        -3.0050   -6.7383    0.1497 C.3       1 <0>        -0.1016
     30 C23        -4.1302   -6.1169    0.9796 C.3       1 <0>        -0.1512
     31 C24        -2.9960   -8.2542    0.3568 C.3       1 <0>        -0.1736
     32 C25        -4.5601   -6.9915   -1.7651 C.2       1 <0>         0.5138
     33 O4         -5.4780   -6.2450   -2.0320 O.2       1 <0>        -0.5490
     34 N1         -4.7280   -8.3256   -1.8568 N.am      1 <0>        -0.7187
     35 C26        -6.0380   -8.8763   -2.2129 C.3       1 <0>         0.1260
     36 C27        -5.9568  -10.4037   -2.2477 C.3       1 <0>        -0.0074
     37 C28        -7.3044  -10.9702   -2.6139 C.2       1 <0>         0.0441
     38 N2         -7.7469  -11.2296   -3.8357 N.2       1 <0>        -0.3836
     39 N3         -8.9410  -11.7031   -3.7254 N.2       1 <0>        -0.1927
     40 N4         -9.2606  -11.7488   -2.4789 N.2       1 <0>        -0.1928
     41 N5         -8.2729  -11.3101   -1.7758 N.2       1 <0>        -0.3837
     42 O5         -1.4919   -4.5321    0.0969 O.3       1 <0>        -0.5301
     43 N6         -2.7511   -2.1473   -0.8111 N.4       1 <0>        -0.6421
     44 H5          2.1624    0.1132    0.3501 H         1 <0>         0.0625
     45 H6          0.4097    0.3890    0.4922 H         1 <0>         0.0536
     46 H7          1.0495   -1.2716    0.4598 H         1 <0>         0.0579
     47 H8          1.1267    0.7374   -1.8363 H         1 <0>         0.0835
     48 H9          2.0439   -2.1707   -1.7340 H         1 <0>         0.0607
     49 H10         2.1354   -1.0764   -3.1348 H         1 <0>         0.0582
     50 H11         3.1353   -0.7651   -1.6955 H         1 <0>         0.0608
     51 H12         0.3824   -1.2981   -3.8415 H         1 <0>         0.0873
     52 H13        -1.3873   -1.3207   -3.6522 H         1 <0>         0.0716
     53 H14        -2.6235    0.8125   -3.3981 H         1 <0>         0.1190
     54 H15        -2.7391    3.1641   -4.1152 H         1 <0>         0.1369
     55 H16         1.5465    0.7312   -4.2885 H         1 <0>         0.1351
     56 H17         3.1118    2.1078   -4.1257 H         1 <0>         0.0634
     57 H18         2.7434    1.5836   -5.7863 H         1 <0>         0.0644
     58 H19         3.7855    3.6525   -6.6707 H         1 <0>         0.0857
     59 H20         4.1540    4.1767   -5.0100 H         1 <0>         0.0850
     60 H21         5.5476    2.1524   -4.6803 H         1 <0>         0.0516
     61 H22         5.1791    1.6282   -6.3409 H         1 <0>         0.0525
     62 H23         8.3981    3.3064   -6.6310 H         1 <0>         0.0904
     63 H24         7.9230    2.2884   -5.2503 H         1 <0>         0.0430
     64 H25         7.5545    1.7643   -6.9109 H         1 <0>         0.0436
     65 H26        -1.9065    6.2467   -5.2739 H         1 <0>         0.1047
     66 H27        -2.7113    4.6843   -5.5557 H         1 <0>         0.0568
     67 H28        -2.3432    5.2090   -3.8952 H         1 <0>         0.0555
     68 H29         0.3511   -2.9226   -1.9363 H         1 <0>         0.1194
     69 H30        -0.1549   -2.3842   -0.3170 H         1 <0>         0.1037
     70 H31        -3.9316   -4.4479   -0.8478 H         1 <0>         0.0774
     71 H32        -3.5250   -4.6854   -2.5643 H         1 <0>         0.0982
     72 H33        -2.0482   -6.3227    0.4659 H         1 <0>         0.1134
     73 H34        -5.0931   -6.4564    0.5981 H         1 <0>         0.0621
     74 H35        -4.0242   -6.4212    2.0209 H         1 <0>         0.0640
     75 H36        -4.0748   -5.0305    0.9111 H         1 <0>         0.0391
     76 H37        -2.2465   -8.7053   -0.2936 H         1 <0>         0.0603
     77 H38        -2.7566   -8.4775    1.3965 H         1 <0>         0.0648
     78 H39        -3.9784   -8.6598    0.1149 H         1 <0>         0.0709
     79 H40        -3.9814   -8.9211   -1.6871 H         1 <0>         0.4017
     80 H41        -6.7753   -8.5684   -1.4713 H         1 <0>         0.0705
     81 H42        -6.3334   -8.5056   -3.1944 H         1 <0>         0.0713
     82 H43        -5.2196  -10.7115   -2.9892 H         1 <0>         0.0727
     83 H44        -5.6615  -10.7743   -1.2661 H         1 <0>         0.0726
     84 H45        -2.1296   -4.1351    0.7058 H         1 <0>         0.3693
     85 H46        -2.7848   -1.1823   -1.1038 H         1 <0>         0.4366
     86 H47        -3.6644   -2.5630   -0.9169 H         1 <0>         0.4371
     87 H48        -2.4696   -2.1956    0.1566 H         1 <0>         0.4297
@<TRIPOS>BOND
     1    1    2 1
     2    1   44 1
     3    1   45 1
     4    1   46 1
     5    2    3 1
     6    2    4 1
     7    2   47 1
     8    3   48 1
     9    3   49 1
    10    3   50 1
    11    4    5 1
    12    4    6 1
    13    4   21 1
    14    6    7 1
    15    6   51 1
    16    6   52 1
    17    7   12 ar
    18    7    8 ar
    19    8    9 ar
    20    8   53 1
    21    9   10 ar
    22    9   54 1
    23   10   11 ar
    24   10   19 1
    25   11   12 ar
    26   11   13 1
    27   12   55 1
    28   13   14 1
    29   14   15 1
    30   14   56 1
    31   14   57 1
    32   15   16 1
    33   15   58 1
    34   15   59 1
    35   16   17 1
    36   16   60 1
    37   16   61 1
    38   17   18 1
    39   18   62 1
    40   18   63 1
    41   18   64 1
    42   19   20 1
    43   20   65 1
    44   20   66 1
    45   20   67 1
    46   21   22 1
    47   21   68 1
    48   21   69 1
    49   22   23 1
    50   22   24 1
    51   22   43 1
    52   24   25 1
    53   24   26 1
    54   24   42 1
    55   26   27 1
    56   26   70 1
    57   26   71 1
    58   27   28 1
    59   27   29 1
    60   27   32 1
    61   29   30 1
    62   29   31 1
    63   29   72 1
    64   30   73 1
    65   30   74 1
    66   30   75 1
    67   31   76 1
    68   31   77 1
    69   31   78 1
    70   32   33 2
    71   32   34 am
    72   34   35 1
    73   34   79 1
    74   35   36 1
    75   35   80 1
    76   35   81 1
    77   36   82 1
    78   36   83 1
    79   36   37 1
    80   37   38 2
    81   37   41 1
    82   38   39 1
    83   39   40 2
    84   40   41 1
    85   42   84 1
    86   43   85 1
    87   43   86 1
    88   43   87 1
@<TRIPOS>MOLECULE
CHEMBL537221
   96    97     0     0     0
SMALL
USER_CHARGES

@<TRIPOS>ATOM
      1 C1         -2.2763   -0.2939   -2.4618 C.3       1 <0>        -0.1561
      2 C2         -3.6650   -0.3419   -1.8213 C.3       1 <0>        -0.0917
      3 C3         -4.5866   -1.2227   -2.6673 C.3       1 <0>        -0.1584
      4 C4         -3.5562   -0.9246   -0.4108 C.3       1 <0>        -0.0886
      5 H1         -2.8510   -0.3333    0.1733 H         1 <0>         0.0661
      6 C5         -4.9299   -0.8912    0.2622 C.3       1 <0>        -0.0809
      7 C6         -5.3545    0.5402    0.4665 C.ar      1 <0>        -0.0897
      8 C7         -4.9117    1.2397    1.5737 C.ar      1 <0>        -0.1199
      9 C8         -5.2984    2.5530    1.7656 C.ar      1 <0>        -0.1701
     10 C9         -6.1312    3.1713    0.8468 C.ar      1 <0>         0.1062
     11 C10        -6.5765    2.4674   -0.2679 C.ar      1 <0>         0.1123
     12 C11        -6.1812    1.1528   -0.4568 C.ar      1 <0>        -0.1680
     13 O1         -7.3940    3.0698   -1.1725 O.3       1 <0>        -0.2978
     14 C12        -7.8116    2.2864   -2.2923 C.3       1 <0>         0.0648
     15 C13        -8.7190    3.1269   -3.1928 C.3       1 <0>        -0.1223
     16 C14        -9.1661    2.2881   -4.3917 C.3       1 <0>         0.0665
     17 O2        -10.0136    3.0732   -5.2328 O.3       1 <0>        -0.3884
     18 C15       -10.4892    2.3798   -6.3882 C.3       1 <0>         0.0308
     19 O3         -6.5129    4.4630    1.0343 O.3       1 <0>        -0.3027
     20 C16        -6.0176    5.1230    2.2010 C.3       1 <0>         0.0249
     21 C17        -3.0636   -2.3708   -0.4930 C.3       1 <0>        -0.1432
     22 C18        -2.8121   -2.9050    0.9185 C.3       1 <0>        -0.0098
     23 H2         -3.7174   -2.7947    1.5154 H         1 <0>         0.1555
     24 C19        -2.4278   -4.3840    0.8431 C.3       1 <0>         0.0911
     25 H3         -3.2387   -4.9470    0.3808 H         1 <0>         0.1476
     26 C20        -2.1763   -4.9182    2.2546 C.3       1 <0>        -0.1568
     27 C21        -1.9435   -6.4291    2.1942 C.3       1 <0>        -0.0965
     28 H4         -2.7616   -6.9013    1.6502 H         1 <0>         0.1033
     29 C22        -0.6226   -6.7133    1.4763 C.3       1 <0>        -0.1040
     30 C23         0.5271   -6.0607    2.2465 C.3       1 <0>        -0.1509
     31 C24        -0.3957   -8.2247    1.4051 C.3       1 <0>        -0.1708
     32 C25        -1.8842   -6.9846    3.5938 C.2       1 <0>         0.5206
     33 O4         -1.8386   -6.2318    4.5436 O.2       1 <0>        -0.5418
     34 N1         -1.8818   -8.3180    3.7901 N.am      1 <0>        -0.7258
     35 C26        -1.7557   -8.8587    5.1458 C.3       1 <0>         0.1186
     36 C27        -1.7805  -10.3874    5.0896 C.3       1 <0>         0.0431
     37 N2         -1.6540  -10.9295    6.4491 N.3       1 <0>        -0.5332
     38 C28        -0.3312  -10.6284    7.0154 C.3       1 <0>         0.0126
     39 C29        -0.2639  -11.1576    8.4504 C.3       1 <0>         0.0621
     40 O5         -0.5462  -12.5596    8.4498 O.3       1 <0>        -0.3826
     41 C30        -1.8271  -12.8888    7.9055 C.3       1 <0>         0.0619
     42 C31        -1.9102  -12.3771    6.4650 C.3       1 <0>         0.0184
     43 O6         -1.2409   -4.5285    0.0606 O.3       1 <0>        -0.5298
     44 N3         -1.7193   -2.1463    1.5416 N.4       1 <0>        -0.6424
     45 H5         -2.3605    0.0729   -3.4847 H         1 <0>         0.0638
     46 H6         -1.6344    0.3744   -1.8878 H         1 <0>         0.0539
     47 H7         -1.8448   -1.2948   -2.4690 H         1 <0>         0.0568
     48 H8         -4.0752    0.6665   -1.7672 H         1 <0>         0.0848
     49 H9         -4.2246   -2.2507   -2.6485 H         1 <0>         0.0595
     50 H10        -5.5975   -1.1861   -2.2613 H         1 <0>         0.0583
     51 H11        -4.5943   -0.8590   -3.6947 H         1 <0>         0.0620
     52 H12        -5.6572   -1.3991   -0.3712 H         1 <0>         0.0870
     53 H13        -4.8740   -1.3949    1.2272 H         1 <0>         0.0696
     54 H14        -4.2626    0.7589    2.2906 H         1 <0>         0.1176
     55 H15        -4.9517    3.0970    2.6318 H         1 <0>         0.1370
     56 H16        -6.5224    0.6054   -1.3230 H         1 <0>         0.1352
     57 H17        -6.9366    1.9645   -2.8570 H         1 <0>         0.0634
     58 H18        -8.3586    1.4118   -1.9400 H         1 <0>         0.0642
     59 H19        -9.5939    3.4488   -2.6280 H         1 <0>         0.0861
     60 H20        -8.1719    4.0015   -3.5450 H         1 <0>         0.0856
     61 H21        -8.2911    1.9662   -4.9565 H         1 <0>         0.0513
     62 H22        -9.7131    1.4136   -4.0395 H         1 <0>         0.0519
     63 H23       -11.1250    3.0435   -6.9742 H         1 <0>         0.0912
     64 H24        -9.6417    2.0598   -6.9944 H         1 <0>         0.0431
     65 H25       -11.0637    1.5072   -6.0774 H         1 <0>         0.0435
     66 H26        -6.3501    4.5874    3.0902 H         1 <0>         0.0567
     67 H27        -4.9281    5.1406    2.1736 H         1 <0>         0.0557
     68 H28        -6.3969    6.1445    2.2291 H         1 <0>         0.1058
     69 H29        -3.8186   -2.9844   -0.9845 H         1 <0>         0.1198
     70 H30        -2.1369   -2.4070   -1.0657 H         1 <0>         0.1042
     71 H31        -1.2966   -4.4316    2.6758 H         1 <0>         0.0782
     72 H32        -3.0427   -4.7088    2.8821 H         1 <0>         0.0988
     73 H33        -0.6623   -6.3039    0.4669 H         1 <0>         0.1180
     74 H34         0.5057   -6.3952    3.2836 H         1 <0>         0.0578
     75 H35         1.4763   -6.3453    1.7924 H         1 <0>         0.0658
     76 H36         0.4184   -4.9767    2.2120 H         1 <0>         0.0427
     77 H37        -1.2523   -8.6985    0.9257 H         1 <0>         0.0607
     78 H38         0.5044   -8.4301    0.8258 H         1 <0>         0.0670
     79 H39        -0.2777   -8.6223    2.4132 H         1 <0>         0.0637
     80 H40        -1.9635   -8.9197    3.0337 H         1 <0>         0.4040
     81 H41        -0.8142   -8.5264    5.5834 H         1 <0>         0.0703
     82 H42        -2.5856   -8.5040    5.7570 H         1 <0>         0.0808
     83 H43        -2.7219  -10.7197    4.6521 H         1 <0>         0.0842
     84 H44        -0.9506  -10.7420    4.4784 H         1 <0>         0.0432
     85 H45         0.4403  -11.1089    6.4137 H         1 <0>         0.0462
     86 H46        -0.1731   -9.5499    7.0174 H         1 <0>         0.0879
     87 H47         0.7340  -10.9874    8.8547 H         1 <0>         0.1010
     88 H48        -0.9996  -10.6385    9.0647 H         1 <0>         0.0621
     89 H49        -1.9598  -13.9706    7.9157 H         1 <0>         0.1026
     90 H50        -2.6082  -12.4200    8.5039 H         1 <0>         0.0625
     91 H51        -2.9047  -12.5751    6.0652 H         1 <0>         0.0895
     92 H52        -1.1640  -12.8855    5.8545 H         1 <0>         0.0468
     93 H53        -0.4602   -4.1111    0.4495 H         1 <0>         0.3699
     94 H54        -0.9052   -2.1788    0.9464 H         1 <0>         0.4303
     95 H55        -2.0054   -1.1870    1.6682 H         1 <0>         0.4386
     96 H56        -1.4968   -2.5520    2.4383 H         1 <0>         0.4351
@<TRIPOS>BOND
     1    1    2 1
     2    1   45 1
     3    1   46 1
     4    1   47 1
     5    2    3 1
     6    2    4 1
     7    2   48 1
     8    3   49 1
     9    3   50 1
    10    3   51 1
    11    4    5 1
    12    4    6 1
    13    4   21 1
    14    6    7 1
    15    6   52 1
    16    6   53 1
    17    7   12 ar
    18    7    8 ar
    19    8    9 ar
    20    8   54 1
    21    9   10 ar
    22    9   55 1
    23   10   11 ar
    24   10   19 1
    25   11   12 ar
    26   11   13 1
    27   12   56 1
    28   13   14 1
    29   14   15 1
    30   14   57 1
    31   14   58 1
    32   15   16 1
    33   15   59 1
    34   15   60 1
    35   16   17 1
    36   16   61 1
    37   16   62 1
    38   17   18 1
    39   18   63 1
    40   18   64 1
    41   18   65 1
    42   19   20 1
    43   20   66 1
    44   20   67 1
    45   20   68 1
    46   21   22 1
    47   21   69 1
    48   21   70 1
    49   22   23 1
    50   22   24 1
    51   22   44 1
    52   24   25 1
    53   24   26 1
    54   24   43 1
    55   26   27 1
    56   26   71 1
    57   26   72 1
    58   27   28 1
    59   27   29 1
    60   27   32 1
    61   29   30 1
    62   29   31 1
    63   29   73 1
    64   30   74 1
    65   30   75 1
    66   30   76 1
    67   31   77 1
    68   31   78 1
    69   31   79 1
    70   32   33 2
    71   32   34 am
    72   34   35 1
    73   34   80 1
    74   35   36 1
    75   35   81 1
    76   35   82 1
    77   36   37 1
    78   36   83 1
    79   36   84 1
    80   37   42 1
    81   37   38 1
    82   38   39 1
    83   38   85 1
    84   38   86 1
    85   39   40 1
    86   39   87 1
    87   39   88 1
    88   40   41 1
    89   41   42 1
    90   41   89 1
    91   41   90 1
    92   42   91 1
    93   42   92 1
    94   43   93 1
    95   44   94 1
    96   44   95 1
    97   44   96 1
@<TRIPOS>MOLECULE
CHEMBL537221__1
   97    98     0     0     0
SMALL
USER_CHARGES

@<TRIPOS>ATOM
      1 C1         -2.2763   -0.2939   -2.4618 C.3       1 <0>        -0.1562
      2 C2         -3.6650   -0.3419   -1.8213 C.3       1 <0>        -0.0924
      3 C3         -4.5866   -1.2227   -2.6673 C.3       1 <0>        -0.1584
      4 C4         -3.5562   -0.9246   -0.4108 C.3       1 <0>        -0.0886
      5 H1         -2.8510   -0.3333    0.1733 H         1 <0>         0.0662
      6 C5         -4.9299   -0.8912    0.2622 C.3       1 <0>        -0.0789
      7 C6         -5.3545    0.5402    0.4665 C.ar      1 <0>        -0.0929
      8 C7         -4.9117    1.2397    1.5737 C.ar      1 <0>        -0.1208
      9 C8         -5.2984    2.5530    1.7656 C.ar      1 <0>        -0.1708
     10 C9         -6.1312    3.1713    0.8468 C.ar      1 <0>         0.1083
     11 C10        -6.5765    2.4674   -0.2679 C.ar      1 <0>         0.1138
     12 C11        -6.1812    1.1528   -0.4568 C.ar      1 <0>        -0.1684
     13 O1         -7.3940    3.0698   -1.1725 O.3       1 <0>        -0.2968
     14 C12        -7.8116    2.2864   -2.2923 C.3       1 <0>         0.0653
     15 C13        -8.7190    3.1269   -3.1928 C.3       1 <0>        -0.1231
     16 C14        -9.1661    2.2881   -4.3917 C.3       1 <0>         0.0669
     17 O2        -10.0136    3.0732   -5.2328 O.3       1 <0>        -0.3878
     18 C15       -10.4892    2.3798   -6.3882 C.3       1 <0>         0.0307
     19 O3         -6.5129    4.4630    1.0343 O.3       1 <0>        -0.3015
     20 C16        -6.0176    5.1230    2.2010 C.3       1 <0>         0.0247
     21 C17        -3.0636   -2.3708   -0.4930 C.3       1 <0>        -0.1438
     22 C18        -2.8121   -2.9050    0.9185 C.3       1 <0>        -0.0097
     23 H2         -3.7174   -2.7947    1.5154 H         1 <0>         0.1559
     24 C19        -2.4278   -4.3840    0.8431 C.3       1 <0>         0.0914
     25 H3         -3.2387   -4.9469    0.3808 H         1 <0>         0.1484
     26 C20        -2.1763   -4.9181    2.2546 C.3       1 <0>        -0.1597
     27 C21        -1.9435   -6.4291    2.1942 C.3       1 <0>        -0.0942
     28 H4         -2.7616   -6.9013    1.6502 H         1 <0>         0.1083
     29 C22        -0.6226   -6.7133    1.4763 C.3       1 <0>        -0.1079
     30 C23         0.5271   -6.0607    2.2465 C.3       1 <0>        -0.1519
     31 C24        -0.3958   -8.2247    1.4051 C.3       1 <0>        -0.1687
     32 C25        -1.8842   -6.9846    3.5938 C.2       1 <0>         0.5295
     33 O4         -1.8386   -6.2318    4.5436 O.2       1 <0>        -0.5277
     34 N1         -1.8818   -8.3180    3.7901 N.am      1 <0>        -0.7306
     35 C26        -1.7557   -8.8587    5.1458 C.3       1 <0>         0.0918
     36 C27        -1.7805  -10.3874    5.0896 C.3       1 <0>        -0.0227
     37 N2         -1.6540  -10.9295    6.4491 N.4       1 <0>        -0.3817
     38 C28        -0.3341  -10.5829    6.9939 C.3       1 <0>        -0.0506
     39 C29        -0.2049  -11.1487    8.4104 C.3       1 <0>         0.0360
     40 O5         -0.4022  -12.5648    8.3724 O.3       1 <0>        -0.3533
     41 C30        -1.6658  -12.9537    7.8265 C.3       1 <0>         0.0350
     42 C31        -1.7977  -12.3913    6.4090 C.3       1 <0>        -0.0430
     43 O6         -1.2409   -4.5285    0.0606 O.3       1 <0>        -0.5292
     44 N3         -1.7193   -2.1463    1.5416 N.4       1 <0>        -0.6429
     45 H5         -2.3605    0.0729   -3.4847 H         1 <0>         0.0653
     46 H6         -1.6344    0.3744   -1.8878 H         1 <0>         0.0543
     47 H7         -1.8448   -1.2948   -2.4690 H         1 <0>         0.0557
     48 H8         -4.0752    0.6665   -1.7672 H         1 <0>         0.0862
     49 H9         -4.2246   -2.2507   -2.6485 H         1 <0>         0.0582
     50 H10        -5.5975   -1.1861   -2.2613 H         1 <0>         0.0586
     51 H11        -4.5943   -0.8590   -3.6947 H         1 <0>         0.0635
     52 H12        -5.6572   -1.3991   -0.3711 H         1 <0>         0.0868
     53 H13        -4.8740   -1.3949    1.2272 H         1 <0>         0.0671
     54 H14        -4.2626    0.7589    2.2906 H         1 <0>         0.1159
     55 H15        -4.9517    3.0970    2.6318 H         1 <0>         0.1372
     56 H16        -6.5224    0.6054   -1.3230 H         1 <0>         0.1352
     57 H17        -6.9366    1.9645   -2.8570 H         1 <0>         0.0634
     58 H18        -8.3586    1.4119   -1.9400 H         1 <0>         0.0639
     59 H19        -9.5939    3.4488   -2.6280 H         1 <0>         0.0866
     60 H20        -8.1719    4.0015   -3.5450 H         1 <0>         0.0864
     61 H21        -8.2911    1.9662   -4.9565 H         1 <0>         0.0510
     62 H22        -9.7131    1.4136   -4.0395 H         1 <0>         0.0513
     63 H23       -11.0637    1.5072   -6.0774 H         1 <0>         0.0434
     64 H24       -11.1250    3.0435   -6.9742 H         1 <0>         0.0921
     65 H25        -9.6417    2.0598   -6.9944 H         1 <0>         0.0432
     66 H26        -6.3501    4.5874    3.0902 H         1 <0>         0.0566
     67 H27        -4.9281    5.1406    2.1736 H         1 <0>         0.0560
     68 H28        -6.3969    6.1445    2.2291 H         1 <0>         0.1072
     69 H29        -3.8186   -2.9844   -0.9845 H         1 <0>         0.1204
     70 H30        -2.1369   -2.4070   -1.0657 H         1 <0>         0.1050
     71 H31        -1.2966   -4.4316    2.6758 H         1 <0>         0.0799
     72 H32        -3.0427   -4.7088    2.8821 H         1 <0>         0.0998
     73 H33        -0.6623   -6.3039    0.4669 H         1 <0>         0.1246
     74 H34         0.5057   -6.3952    3.2836 H         1 <0>         0.0533
     75 H35         1.4763   -6.3454    1.7924 H         1 <0>         0.0697
     76 H36         0.4184   -4.9767    2.2120 H         1 <0>         0.0466
     77 H37        -1.2523   -8.6985    0.9257 H         1 <0>         0.0623
     78 H38         0.5044   -8.4301    0.8258 H         1 <0>         0.0720
     79 H39        -0.2777   -8.6223    2.4131 H         1 <0>         0.0558
     80 H40        -1.9636   -8.9197    3.0337 H         1 <0>         0.4126
     81 H41        -0.8143   -8.5264    5.5833 H         1 <0>         0.0909
     82 H42        -2.5856   -8.5040    5.7570 H         1 <0>         0.0921
     83 H43        -2.7219  -10.7197    4.6521 H         1 <0>         0.1413
     84 H44        -0.9506  -10.7420    4.4784 H         1 <0>         0.1390
     85 H45         0.4440  -11.0083    6.3601 H         1 <0>         0.1421
     86 H46        -0.2265   -9.4987    7.0242 H         1 <0>         0.1424
     87 H47         0.7891  -10.9300    8.8004 H         1 <0>         0.1445
     88 H48        -0.9575  -10.6934    9.0542 H         1 <0>         0.0834
     89 H49        -1.7290  -14.0413    7.7940 H         1 <0>         0.1460
     90 H50        -2.4684  -12.5602    8.4503 H         1 <0>         0.0836
     91 H51        -2.7766  -12.6495    6.0050 H         1 <0>         0.1455
     92 H52        -1.0190  -12.8160    5.7754 H         1 <0>         0.1418
     93 H53        -0.4602   -4.1111    0.4495 H         1 <0>         0.3711
     94 H54        -2.0054   -1.1870    1.6682 H         1 <0>         0.4412
     95 H55        -1.4968   -2.5520    2.4383 H         1 <0>         0.4326
     96 H56        -0.9052   -2.1788    0.9464 H         1 <0>         0.4313
     97 H57        -2.3743  -10.5366    7.0363 H         1 <0>         0.4262
@<TRIPOS>BOND
     1    1    2 1
     2    1   45 1
     3    1   46 1
     4    1   47 1
     5    2    3 1
     6    2    4 1
     7    2   48 1
     8    3   49 1
     9    3   50 1
    10    3   51 1
    11    4    5 1
    12    4    6 1
    13    4   21 1
    14    6    7 1
    15    6   52 1
    16    6   53 1
    17    7   12 ar
    18    7    8 ar
    19    8    9 ar
    20    8   54 1
    21    9   10 ar
    22    9   55 1
    23   10   11 ar
    24   10   19 1
    25   11   12 ar
    26   11   13 1
    27   12   56 1
    28   13   14 1
    29   14   15 1
    30   14   57 1
    31   14   58 1
    32   15   16 1
    33   15   59 1
    34   15   60 1
    35   16   17 1
    36   16   61 1
    37   16   62 1
    38   17   18 1
    39   18   63 1
    40   18   64 1
    41   18   65 1
    42   19   20 1
    43   20   66 1
    44   20   67 1
    45   20   68 1
    46   21   22 1
    47   21   69 1
    48   21   70 1
    49   22   23 1
    50   22   24 1
    51   22   44 1
    52   24   25 1
    53   24   26 1
    54   24   43 1
    55   26   27 1
    56   26   71 1
    57   26   72 1
    58   27   28 1
    59   27   29 1
    60   27   32 1
    61   29   30 1
    62   29   31 1
    63   29   73 1
    64   30   74 1
    65   30   75 1
    66   30   76 1
    67   31   77 1
    68   31   78 1
    69   31   79 1
    70   32   33 2
    71   32   34 am
    72   34   35 1
    73   34   80 1
    74   35   36 1
    75   35   81 1
    76   35   82 1
    77   36   37 1
    78   36   83 1
    79   36   84 1
    80   37   42 1
    81   37   38 1
    82   37   97 1
    83   38   39 1
    84   38   85 1
    85   38   86 1
    86   39   40 1
    87   39   87 1
    88   39   88 1
    89   40   41 1
    90   41   42 1
    91   41   89 1
    92   41   90 1
    93   42   91 1
    94   42   92 1
    95   43   93 1
    96   44   94 1
    97   44   95 1
    98   44   96 1
@<TRIPOS>MOLECULE
CHEMBL59128
   93    95     0     0     0
SMALL
USER_CHARGES

@<TRIPOS>ATOM
      1 C1         -0.0106    0.6838   -0.5886 C.3       1 <0>        -0.1537
      2 C2         -0.0007   -0.8369   -0.4201 C.3       1 <0>        -0.0938
      3 C3          0.7064   -1.4779   -1.6159 C.3       1 <0>        -0.1486
      4 C4          0.7413   -1.2025    0.8671 C.3       1 <0>        -0.1264
      5 C5         -0.0340   -0.6667    2.0724 C.3       1 <0>         0.1137
      6 N1          0.6764   -1.0167    3.3048 N.am      1 <0>        -0.7279
      7 C6          0.1758   -0.6456    4.4999 C.2       1 <0>         0.5484
      8 O1         -0.8658   -0.0202    4.5551 O.2       1 <0>        -0.5342
      9 C7          0.8891   -0.9971    5.7374 C.2       1 <0>        -0.1824
     10 C8          0.3951   -0.6309    6.9166 C.2       1 <0>        -0.0794
     11 C9          2.1797   -1.7721    5.6690 C.3       1 <0>        -0.1119
     12 C10         1.8724   -3.2691    5.5947 C.3       1 <0>         0.1003
     13 H1          1.2047   -3.4617    4.7549 H         1 <0>         0.1175
     14 C11         3.1747   -4.0481    5.3999 C.3       1 <0>         0.1132
     15 H2          3.6539   -3.7292    4.4742 H         1 <0>         0.1074
     16 C12         2.8673   -5.5451    5.3256 C.3       1 <0>        -0.1248
     17 C13         4.1510   -6.3141    5.0067 C.3       1 <0>        -0.0783
     18 C14         4.6408   -5.9316    3.6086 C.3       1 <0>        -0.1067
     19 C15         5.9245   -6.7006    3.2897 C.3       1 <0>        -0.1095
     20 C16         5.6438   -8.2038    3.3383 C.3       1 <0>        -0.1234
     21 C17         5.1541   -8.5863    4.7364 C.3       1 <0>        -0.1159
     22 C18         3.8704   -7.8173    5.0552 C.3       1 <0>        -0.1173
     23 N2          4.0721   -3.7893    6.5286 N.am      1 <0>        -0.7160
     24 C19         5.4043   -3.9236    6.3749 C.2       1 <0>         0.5088
     25 O2          5.8602   -4.2588    5.3022 O.2       1 <0>        -0.4924
     26 C20         6.3274   -3.6574    7.5360 C.3       1 <0>         0.1254
     27 C21         6.1533   -2.2114    8.0047 C.3       1 <0>        -0.0702
     28 C22         6.9841   -1.9805    9.2406 C.2       1 <0>         0.0387
     29 C23         6.6143   -2.2566   10.5057 C.2       1 <0>         0.0542
     30 N3          7.6600   -1.8953   11.3118 N.pl3     1 <0>        -0.4990
     31 H3          7.6954   -1.9729   12.2781 H         1 <0>         0.4664
     32 C24         8.6331   -1.4107   10.5106 C.cat     1 <0>         0.3138
     33 N4          8.2238   -1.4694    9.2729 N.pl3     1 <0>        -0.4732
     34 N5          7.7145   -3.8710    7.1160 N.am      1 <0>        -0.7048
     35 C25         8.6534   -4.1900    8.0287 C.2       1 <0>         0.4947
     36 O3          8.3500   -4.3003    9.1978 O.2       1 <0>        -0.5254
     37 C26        10.0804   -4.4098    7.5967 C.3       1 <0>         0.1666
     38 C27        10.2523   -5.8533    7.1198 C.3       1 <0>        -0.1410
     39 C28        11.0029   -4.1519    8.7601 C.ar      1 <0>        -0.1176
     40 C29        11.8564   -3.0647    8.7376 C.ar      1 <0>        -0.1189
     41 C30        12.7026   -2.8281    9.8048 C.ar      1 <0>        -0.1210
     42 C31        12.6949   -3.6784   10.8946 C.ar      1 <0>        -0.1084
     43 C32        11.8407   -4.7650   10.9176 C.ar      1 <0>        -0.1181
     44 C33        10.9915   -4.9992    9.8523 C.ar      1 <0>        -0.0776
     45 O4         10.3981   -3.5144    6.5292 O.3       1 <0>        -0.5308
     46 O5          1.2442   -3.6872    6.8082 O.3       1 <0>        -0.5374
     47 H4          1.0145    1.0500   -0.6437 H         1 <0>         0.0549
     48 H5         -0.5392    0.9442   -1.5056 H         1 <0>         0.0583
     49 H6         -0.5143    1.1405    0.2633 H         1 <0>         0.0575
     50 H7         -1.0258   -1.2031   -0.3650 H         1 <0>         0.0745
     51 H8          1.7315   -1.1117   -1.6710 H         1 <0>         0.0548
     52 H9          0.7135   -2.5613   -1.4958 H         1 <0>         0.0552
     53 H10         0.1778   -1.2175   -2.5329 H         1 <0>         0.0588
     54 H11         0.8260   -2.2866    0.9422 H         1 <0>         0.0694
     55 H12         1.7375   -0.7605    0.8502 H         1 <0>         0.0687
     56 H13        -0.1187    0.4174    1.9972 H         1 <0>         0.0730
     57 H14        -1.0302   -1.1087    2.0892 H         1 <0>         0.0702
     58 H15         1.5072   -1.5156    3.2608 H         1 <0>         0.3962
     59 H16         0.9188   -0.8890    7.8252 H         1 <0>         0.1119
     60 H17        -0.5299   -0.0755    6.9656 H         1 <0>         0.1183
     61 H18         2.7376   -1.4713    4.7822 H         1 <0>         0.0833
     62 H19         2.7743   -1.5671    6.5592 H         1 <0>         0.0781
     63 H20         2.4700   -5.8824    6.2829 H         1 <0>         0.0730
     64 H21         2.1312   -5.7264    4.5425 H         1 <0>         0.0766
     65 H22         4.9166   -6.0635    5.7410 H         1 <0>         0.0692
     66 H23         3.8752   -6.1821    2.8743 H         1 <0>         0.0500
     67 H24         4.8407   -4.8606    3.5740 H         1 <0>         0.0748
     68 H25         6.2734   -6.4280    2.2937 H         1 <0>         0.0554
     69 H26         6.6900   -6.4500    4.0241 H         1 <0>         0.0596
     70 H27         4.8783   -8.4544    2.6039 H         1 <0>         0.0603
     71 H28         6.5583   -8.7517    3.1111 H         1 <0>         0.0580
     72 H29         4.9542   -9.6573    4.7709 H         1 <0>         0.0596
     73 H30         5.9196   -8.3358    5.4707 H         1 <0>         0.0545
     74 H31         3.5215   -8.0899    6.0513 H         1 <0>         0.0560
     75 H32         3.1048   -8.0679    4.3209 H         1 <0>         0.0616
     76 H33         3.7074   -3.5212    7.3865 H         1 <0>         0.3947
     77 H34         6.0869   -4.3360    8.3544 H         1 <0>         0.1258
     78 H35         6.4782   -1.5323    7.2164 H         1 <0>         0.1073
     79 H36         5.1035   -2.0273    8.2330 H         1 <0>         0.1233
     80 H37         5.6734   -2.6811   10.8233 H         1 <0>         0.2224
     81 H38         9.5926   -1.0399   10.8394 H         1 <0>         0.2590
     82 H39         7.9572   -3.7828    6.1810 H         1 <0>         0.4240
     83 H40         9.5850   -6.0399    6.2783 H         1 <0>         0.0770
     84 H41        11.2844   -6.0123    6.8073 H         1 <0>         0.0863
     85 H42        10.0099   -6.5363    7.9340 H         1 <0>         0.0817
     86 H43        11.8624   -2.4004    7.8861 H         1 <0>         0.1249
     87 H44        13.3700   -1.9792    9.7869 H         1 <0>         0.1282
     88 H45        13.3565   -3.4940   11.7281 H         1 <0>         0.1274
     89 H46        11.8350   -5.4295   11.7689 H         1 <0>         0.1270
     90 H47        10.3215   -5.8460    9.8718 H         1 <0>         0.1244
     91 H48        10.3108   -2.5796    6.7608 H         1 <0>         0.3722
     92 H49         1.7825   -3.5454    7.5989 H         1 <0>         0.3637
     93 H50         8.7348   -1.1863    8.4985 H         1 <0>         0.4561
@<TRIPOS>BOND
     1    1    2 1
     2    1   47 1
     3    1   48 1
     4    1   49 1
     5    2    3 1
     6    2    4 1
     7    2   50 1
     8    3   51 1
     9    3   52 1
    10    3   53 1
    11    4    5 1
    12    4   54 1
    13    4   55 1
    14    5    6 1
    15    5   56 1
    16    5   57 1
    17    6    7 am
    18    6   58 1
    19    7    8 2
    20    7    9 1
    21    9   10 2
    22    9   11 1
    23   10   59 1
    24   10   60 1
    25   11   12 1
    26   11   61 1
    27   11   62 1
    28   12   13 1
    29   12   14 1
    30   12   46 1
    31   14   15 1
    32   14   16 1
    33   14   23 1
    34   16   17 1
    35   16   63 1
    36   16   64 1
    37   17   22 1
    38   17   18 1
    39   17   65 1
    40   18   19 1
    41   18   66 1
    42   18   67 1
    43   19   20 1
    44   19   68 1
    45   19   69 1
    46   20   21 1
    47   20   70 1
    48   20   71 1
    49   21   22 1
    50   21   72 1
    51   21   73 1
    52   22   74 1
    53   22   75 1
    54   23   24 am
    55   23   76 1
    56   24   25 2
    57   24   26 1
    58   26   27 1
    59   26   34 1
    60   26   77 1
    61   27   28 1
    62   27   78 1
    63   27   79 1
    64   28   33 1
    65   28   29 2
    66   29   30 1
    67   29   80 1
    68   30   31 1
    69   30   32 1
    70   32   33 2
    71   32   81 1
    72   33   93 1
    73   34   35 am
    74   34   82 1
    75   35   36 2
    76   35   37 1
    77   37   38 1
    78   37   39 1
    79   37   45 1
    80   38   83 1
    81   38   84 1
    82   38   85 1
    83   39   44 ar
    84   39   40 ar
    85   40   41 ar
    86   40   86 1
    87   41   42 ar
    88   41   87 1
    89   42   43 ar
    90   42   88 1
    91   43   44 ar
    92   43   89 1
    93   44   90 1
    94   45   91 1
    95   46   92 1
@<TRIPOS>MOLECULE
CHEMBL59128__1
   92    94     0     0     0
SMALL
USER_CHARGES

@<TRIPOS>ATOM
      1 C1         -0.5220    0.6873    0.2995 C.3       1 <0>        -0.1533
      2 C2         -0.3435   -0.8298    0.2137 C.3       1 <0>        -0.0932
      3 C3         -1.7164   -1.5050    0.2018 C.3       1 <0>        -0.1482
      4 C4          0.4096   -1.1829   -1.0705 C.3       1 <0>        -0.1278
      5 C5          1.8274   -0.6117   -1.0037 C.3       1 <0>         0.1153
      6 N1          2.5485   -0.9497   -2.2333 N.am      1 <0>        -0.7287
      7 C6          3.8243   -0.5478   -2.3986 C.2       1 <0>         0.5520
      8 O1          4.3769    0.0955   -1.5269 O.2       1 <0>        -0.5396
      9 C7          4.5483   -0.8872   -3.6332 C.2       1 <0>        -0.1821
     10 C8          5.8072   -0.4906   -3.7963 C.2       1 <0>        -0.0793
     11 C9          3.8636   -1.6844   -4.7134 C.3       1 <0>        -0.1152
     12 C10         3.9897   -3.1773   -4.4031 C.3       1 <0>         0.1028
     13 H1          3.6007   -3.3749   -3.4042 H         1 <0>         0.1124
     14 C11         3.1897   -3.9810   -5.4302 C.3       1 <0>         0.1135
     15 H2          2.1410   -3.6877   -5.3841 H         1 <0>         0.1031
     16 C12         3.3158   -5.4739   -5.1199 C.3       1 <0>        -0.1221
     17 C13         2.4175   -6.2697   -6.0689 C.3       1 <0>        -0.0811
     18 C14         0.9527   -5.9220   -5.7962 C.3       1 <0>        -0.1043
     19 C15         0.0544   -6.7178   -6.7452 C.3       1 <0>        -0.1107
     20 C16         0.2737   -8.2150   -6.5194 C.3       1 <0>        -0.1207
     21 C17         1.7385   -8.5628   -6.7921 C.3       1 <0>        -0.1167
     22 C18         2.6368   -7.7670   -5.8431 C.3       1 <0>        -0.1154
     23 N2          3.7126   -3.7154   -6.7727 N.am      1 <0>        -0.7204
     24 C19         2.9174   -3.8744   -7.8492 C.2       1 <0>         0.5130
     25 O2          1.7690   -4.2374   -7.7065 O.2       1 <0>        -0.5110
     26 C20         3.4553   -3.6012   -9.2302 C.3       1 <0>         0.1375
     27 C21         3.9124   -2.1439   -9.3204 C.3       1 <0>        -0.0376
     28 C22         4.5621   -1.9031  -10.6587 C.2       1 <0>         0.0083
     29 C23         4.2176   -0.9499  -11.5455 C.2       1 <0>        -0.0600
     30 N3          5.0583   -1.0839  -12.6174 N.pl3     1 <0>        -0.5681
     31 H3          5.0583   -0.5398  -13.4204 H         1 <0>         0.4161
     32 C24         5.8878   -2.1149  -12.3481 C.2       1 <0>         0.1980
     33 N4          5.5884   -2.5968  -11.1728 N.2       1 <0>        -0.4520
     34 N5          2.4040   -3.8454  -10.2208 N.am      1 <0>        -0.7045
     35 C25         2.7333   -4.1623  -11.4888 C.2       1 <0>         0.4893
     36 O3          3.9000   -4.2453  -11.8096 O.2       1 <0>        -0.4880
     37 C26         1.6519   -4.4135  -12.5078 C.3       1 <0>         0.1663
     38 C27         1.1900   -5.8690  -12.4130 C.3       1 <0>        -0.1358
     39 C28         2.1918   -4.1468  -13.8893 C.ar      1 <0>        -0.1023
     40 C29         1.7184   -3.0738  -14.6211 C.ar      1 <0>        -0.1087
     41 C30         2.2136   -2.8291  -15.8883 C.ar      1 <0>        -0.1241
     42 C31         3.1825   -3.6572  -16.4235 C.ar      1 <0>        -0.1153
     43 C32         3.6564   -4.7297  -15.6914 C.ar      1 <0>        -0.1215
     44 C33         3.1643   -4.9718  -14.4225 C.ar      1 <0>        -0.0749
     45 O4          0.5460   -3.5452  -12.2527 O.3       1 <0>        -0.5416
     46 O5          5.3646   -3.5619   -4.4634 O.3       1 <0>        -0.5429
     47 H4          0.4561    1.1683    0.3080 H         1 <0>         0.0578
     48 H5         -1.0907    1.0356   -0.5626 H         1 <0>         0.0553
     49 H6         -1.0585    0.9388    1.2144 H         1 <0>         0.0565
     50 H7          0.2253   -1.1781    1.0759 H         1 <0>         0.0735
     51 H8         -2.2851   -1.1567   -0.6603 H         1 <0>         0.0552
     52 H9         -1.5892   -2.5859    0.1407 H         1 <0>         0.0552
     53 H10        -2.2529   -1.2535    1.1167 H         1 <0>         0.0571
     54 H11         0.4591   -2.2666   -1.1764 H         1 <0>         0.0700
     55 H12        -0.1135   -0.7577   -1.9270 H         1 <0>         0.0698
     56 H13         1.7779    0.4720   -0.8978 H         1 <0>         0.0714
     57 H14         2.3505   -1.0369   -0.1472 H         1 <0>         0.0684
     58 H15         2.1077   -1.4628   -2.9286 H         1 <0>         0.3982
     59 H16         6.3388   -0.7398   -4.7027 H         1 <0>         0.1145
     60 H17         6.2980    0.0807   -3.0222 H         1 <0>         0.1160
     61 H18         2.8096   -1.4097   -4.7548 H         1 <0>         0.0821
     62 H19         4.3325   -1.4721   -5.6742 H         1 <0>         0.0837
     63 H20         4.3516   -5.7864   -5.2526 H         1 <0>         0.0714
     64 H21         3.0098   -5.6581   -4.0901 H         1 <0>         0.0709
     65 H22         2.6649   -6.0177   -7.1001 H         1 <0>         0.0751
     66 H23         0.7054   -6.1739   -4.7650 H         1 <0>         0.0453
     67 H24         0.7965   -4.8553   -5.9571 H         1 <0>         0.0771
     68 H25        -0.9891   -6.4700   -6.5510 H         1 <0>         0.0529
     69 H26         0.3018   -6.4658   -7.7765 H         1 <0>         0.0636
     70 H27         0.0263   -8.4670   -5.4882 H         1 <0>         0.0571
     71 H28        -0.3663   -8.7820   -7.1955 H         1 <0>         0.0559
     72 H29         1.8947   -9.6295   -6.6313 H         1 <0>         0.0567
     73 H30         1.9858   -8.3108   -7.8233 H         1 <0>         0.0575
     74 H31         3.6803   -8.0148   -6.0374 H         1 <0>         0.0556
     75 H32         2.3894   -8.0190   -4.8119 H         1 <0>         0.0580
     76 H33         4.6311   -3.4251   -6.8868 H         1 <0>         0.3969
     77 H34         4.3008   -4.2601   -9.4277 H         1 <0>         0.1210
     78 H35         3.0508   -1.4854   -9.2110 H         1 <0>         0.0796
     79 H36         4.6299   -1.9384   -8.5260 H         1 <0>         0.0821
     80 H37         3.4294   -0.2203  -11.4328 H         1 <0>         0.1649
     81 H38         6.6718   -2.4779  -12.9961 H         1 <0>         0.1976
     82 H39         1.4709   -3.7790   -9.9642 H         1 <0>         0.4116
     83 H40         0.7995   -6.0619  -11.4138 H         1 <0>         0.0730
     84 H41         0.4078   -6.0507  -13.1501 H         1 <0>         0.0774
     85 H42         2.0335   -6.5313  -12.6076 H         1 <0>         0.0780
     86 H43         0.9615   -2.4268  -14.2029 H         1 <0>         0.1210
     87 H44         1.8433   -1.9912  -16.4602 H         1 <0>         0.1209
     88 H45         3.5688   -3.4665  -17.4139 H         1 <0>         0.1208
     89 H46         4.4131   -5.3769  -16.1097 H         1 <0>         0.1225
     90 H47         3.5373   -5.8075  -13.8490 H         1 <0>         0.1229
     91 H48         0.7663   -2.6046  -12.2963 H         1 <0>         0.3787
     92 H49         5.7770   -3.4138   -5.3255 H         1 <0>         0.3689
@<TRIPOS>BOND
     1    1    2 1
     2    1   47 1
     3    1   48 1
     4    1   49 1
     5    2    3 1
     6    2    4 1
     7    2   50 1
     8    3   51 1
     9    3   52 1
    10    3   53 1
    11    4    5 1
    12    4   54 1
    13    4   55 1
    14    5    6 1
    15    5   56 1
    16    5   57 1
    17    6    7 am
    18    6   58 1
    19    7    8 2
    20    7    9 1
    21    9   10 2
    22    9   11 1
    23   10   59 1
    24   10   60 1
    25   11   12 1
    26   11   61 1
    27   11   62 1
    28   12   13 1
    29   12   14 1
    30   12   46 1
    31   14   15 1
    32   14   16 1
    33   14   23 1
    34   16   17 1
    35   16   63 1
    36   16   64 1
    37   17   22 1
    38   17   18 1
    39   17   65 1
    40   18   19 1
    41   18   66 1
    42   18   67 1
    43   19   20 1
    44   19   68 1
    45   19   69 1
    46   20   21 1
    47   20   70 1
    48   20   71 1
    49   21   22 1
    50   21   72 1
    51   21   73 1
    52   22   74 1
    53   22   75 1
    54   23   24 am
    55   23   76 1
    56   24   25 2
    57   24   26 1
    58   26   27 1
    59   26   34 1
    60   26   77 1
    61   27   28 1
    62   27   78 1
    63   27   79 1
    64   28   33 1
    65   28   29 2
    66   29   30 1
    67   29   80 1
    68   30   31 1
    69   30   32 1
    70   32   33 2
    71   32   81 1
    72   34   35 am
    73   34   82 1
    74   35   36 2
    75   35   37 1
    76   37   38 1
    77   37   39 1
    78   37   45 1
    79   38   83 1
    80   38   84 1
    81   38   85 1
    82   39   44 ar
    83   39   40 ar
    84   40   41 ar
    85   40   86 1
    86   41   42 ar
    87   41   87 1
    88   42   43 ar
    89   42   88 1
    90   43   44 ar
    91   43   89 1
    92   44   90 1
    93   45   91 1
    94   46   92 1
@<TRIPOS>MOLECULE
CHEMBL59128__2
   92    94     0     0     0
SMALL
USER_CHARGES

@<TRIPOS>ATOM
      1 C1         -0.4933    0.6626    0.3142 C.3       1 <0>        -0.1535
      2 C2         -0.3197   -0.8549    0.2244 C.3       1 <0>        -0.0932
      3 C3         -1.6948   -1.5257    0.2122 C.3       1 <0>        -0.1483
      4 C4          0.4310   -1.2071   -1.0614 C.3       1 <0>        -0.1277
      5 C5          1.8507   -0.6406   -0.9946 C.3       1 <0>         0.1150
      6 N1          2.5695   -0.9779   -2.2257 N.am      1 <0>        -0.7284
      7 C6          3.8464   -0.5796   -2.3912 C.2       1 <0>         0.5515
      8 O1          4.4018    0.0598   -1.5185 O.2       1 <0>        -0.5385
      9 C7          4.5681   -0.9183   -3.6274 C.2       1 <0>        -0.1815
     10 C8          5.8281   -0.5253   -3.7907 C.2       1 <0>        -0.0799
     11 C9          3.8798   -1.7106   -4.7089 C.3       1 <0>        -0.1148
     12 C10         4.0015   -3.2046   -4.4024 C.3       1 <0>         0.1023
     13 H1          3.6128   -3.4035   -3.4036 H         1 <0>         0.1140
     14 C11         3.1980   -4.0033   -5.4307 C.3       1 <0>         0.1132
     15 H2          2.1502   -3.7068   -5.3829 H         1 <0>         0.1049
     16 C12         3.3197   -5.4974   -5.1242 C.3       1 <0>        -0.1222
     17 C13         2.4179   -6.2880   -6.0742 C.3       1 <0>        -0.0811
     18 C14         0.9545   -5.9362   -5.7993 C.3       1 <0>        -0.1048
     19 C15         0.0527   -6.7269   -6.7494 C.3       1 <0>        -0.1110
     20 C16         0.2675   -8.2254   -6.5274 C.3       1 <0>        -0.1210
     21 C17         1.7309   -8.5771   -6.8024 C.3       1 <0>        -0.1168
     22 C18         2.6326   -7.7865   -5.8523 C.3       1 <0>        -0.1154
     23 N2          3.7204   -3.7361   -6.7730 N.am      1 <0>        -0.7208
     24 C19         2.9237   -3.8899   -7.8491 C.2       1 <0>         0.5126
     25 O2          1.7743   -4.2496   -7.7062 O.2       1 <0>        -0.5032
     26 C20         3.4611   -3.6150   -9.2300 C.3       1 <0>         0.1347
     27 C21         3.9227   -2.1589   -9.3170 C.3       1 <0>        -0.0492
     28 C22         4.5718   -1.9169  -10.6554 C.2       1 <0>        -0.0194
     29 C23         3.9466   -1.5991  -11.8050 C.2       1 <0>         0.0010
     30 N3          4.8779   -1.4687  -12.7614 N.2       1 <0>        -0.4765
     31 H3          6.6217   -2.1756  -10.3072 H         1 <0>         0.4138
     32 C24         6.0564   -1.6936  -12.2481 C.2       1 <0>         0.1912
     33 N4          5.9107   -1.9719  -10.9347 N.pl3     1 <0>        -0.5603
     34 N5          2.4080   -3.8534  -10.2202 N.am      1 <0>        -0.7064
     35 C25         2.7351   -4.1682  -11.4892 C.2       1 <0>         0.4988
     36 O3          3.9012   -4.2541  -11.8114 O.2       1 <0>        -0.5013
     37 C26         1.6519   -4.4135  -12.5078 C.3       1 <0>         0.1693
     38 C27         1.1842   -5.8673  -12.4149 C.3       1 <0>        -0.1362
     39 C28         2.1918   -4.1468  -13.8893 C.ar      1 <0>        -0.1036
     40 C29         3.1603   -4.9752  -14.4247 C.ar      1 <0>        -0.0766
     41 C30         3.6555   -4.7305  -15.6919 C.ar      1 <0>        -0.1212
     42 C31         3.1818   -3.6577  -16.4239 C.ar      1 <0>        -0.1099
     43 C32         2.2127   -2.8299  -15.8888 C.ar      1 <0>        -0.1154
     44 C33         1.7144   -3.0771  -14.6233 C.ar      1 <0>        -0.1012
     45 O4          0.5497   -3.5412  -12.2505 O.3       1 <0>        -0.5416
     46 O5          5.3752   -3.5934   -4.4650 O.3       1 <0>        -0.5416
     47 H4          0.4863    1.1405    0.3228 H         1 <0>         0.0577
     48 H5         -1.0618    1.0148   -0.5466 H         1 <0>         0.0554
     49 H6         -1.0281    0.9136    1.2302 H         1 <0>         0.0568
     50 H7          0.2488   -1.2071    1.0852 H         1 <0>         0.0735
     51 H8         -2.2632   -1.1734   -0.6485 H         1 <0>         0.0554
     52 H9         -1.5711   -2.6067    0.1483 H         1 <0>         0.0552
     53 H10        -2.2296   -1.2747    1.1283 H         1 <0>         0.0573
     54 H11         0.4770   -2.2907   -1.1700 H         1 <0>         0.0698
     55 H12        -0.0916   -0.7781   -1.9163 H         1 <0>         0.0700
     56 H13         1.8047    0.4430   -0.8860 H         1 <0>         0.0718
     57 H14         2.3732   -1.0696   -0.1396 H         1 <0>         0.0687
     58 H15         2.1264   -1.4879   -2.9218 H         1 <0>         0.3980
     59 H16         6.3581   -0.7739   -4.6983 H         1 <0>         0.1129
     60 H17         6.3214    0.0426   -3.0157 H         1 <0>         0.1168
     61 H18         2.8267   -1.4325   -4.7486 H         1 <0>         0.0833
     62 H19         4.3484   -1.4975   -5.6696 H         1 <0>         0.0818
     63 H20         4.3543   -5.8128   -5.2586 H         1 <0>         0.0708
     64 H21         3.0141   -5.6831   -4.0945 H         1 <0>         0.0723
     65 H22         2.6651   -6.0342   -7.1051 H         1 <0>         0.0738
     66 H23         0.7073   -6.1900   -4.7684 H         1 <0>         0.0463
     67 H24         0.8015   -4.8687   -5.9574 H         1 <0>         0.0769
     68 H25        -0.9898   -6.4763   -6.5535 H         1 <0>         0.0540
     69 H26         0.2999   -6.4731   -7.7802 H         1 <0>         0.0636
     70 H27         0.0203   -8.4791   -5.4966 H         1 <0>         0.0575
     71 H28        -0.3750   -8.7886   -7.2043 H         1 <0>         0.0568
     72 H29         1.8839   -9.6447   -6.6443 H         1 <0>         0.0572
     73 H30         1.9780   -8.3234   -7.8333 H         1 <0>         0.0572
     74 H31         3.6752   -8.0371   -6.0482 H         1 <0>         0.0550
     75 H32         2.3855   -8.0402   -4.8215 H         1 <0>         0.0587
     76 H33         4.6397   -3.4484   -6.8873 H         1 <0>         0.3941
     77 H34         4.3043   -4.2761   -9.4300 H         1 <0>         0.1107
     78 H35         3.0633   -1.4979   -9.2052 H         1 <0>         0.0955
     79 H36         4.6417   -1.9576   -8.5228 H         1 <0>         0.0796
     80 H37         2.8820   -1.4716  -11.9342 H         1 <0>         0.1474
     81 H38         6.9934   -1.6594  -12.7841 H         1 <0>         0.2008
     82 H39         1.4754   -3.7847   -9.9625 H         1 <0>         0.4152
     83 H40         0.7938   -6.0602  -11.4157 H         1 <0>         0.0717
     84 H41         0.4007   -6.0447  -13.1517 H         1 <0>         0.0796
     85 H42         2.0249   -6.5327  -12.6112 H         1 <0>         0.0773
     86 H43         3.5303   -5.8133  -13.8529 H         1 <0>         0.1175
     87 H44         4.4126   -5.3773  -16.1100 H         1 <0>         0.1191
     88 H45         3.5692   -3.4662  -17.4137 H         1 <0>         0.1195
     89 H46         1.8429   -1.9916  -16.4605 H         1 <0>         0.1208
     90 H47         0.9545   -2.4325  -14.2067 H         1 <0>         0.1202
     91 H48         0.7737   -2.6014  -12.2928 H         1 <0>         0.3799
     92 H49         5.7871   -3.4445   -5.3271 H         1 <0>         0.3664
@<TRIPOS>BOND
     1    1    2 1
     2    1   47 1
     3    1   48 1
     4    1   49 1
     5    2    3 1
     6    2    4 1
     7    2   50 1
     8    3   51 1
     9    3   52 1
    10    3   53 1
    11    4    5 1
    12    4   54 1
    13    4   55 1
    14    5    6 1
    15    5   56 1
    16    5   57 1
    17    6    7 am
    18    6   58 1
    19    7    8 2
    20    7    9 1
    21    9   10 2
    22    9   11 1
    23   10   59 1
    24   10   60 1
    25   11   12 1
    26   11   61 1
    27   11   62 1
    28   12   13 1
    29   12   14 1
    30   12   46 1
    31   14   15 1
    32   14   16 1
    33   14   23 1
    34   16   17 1
    35   16   63 1
    36   16   64 1
    37   17   22 1
    38   17   18 1
    39   17   65 1
    40   18   19 1
    41   18   66 1
    42   18   67 1
    43   19   20 1
    44   19   68 1
    45   19   69 1
    46   20   21 1
    47   20   70 1
    48   20   71 1
    49   21   22 1
    50   21   72 1
    51   21   73 1
    52   22   74 1
    53   22   75 1
    54   23   24 am
    55   23   76 1
    56   24   25 2
    57   24   26 1
    58   26   27 1
    59   26   34 1
    60   26   77 1
    61   27   78 1
    62   27   79 1
    63   27   28 1
    64   28   29 2
    65   28   33 1
    66   29   30 1
    67   29   80 1
    68   30   32 2
    69   31   33 1
    70   32   81 1
    71   32   33 1
    72   34   35 am
    73   34   82 1
    74   35   36 2
    75   35   37 1
    76   37   38 1
    77   37   39 1
    78   37   45 1
    79   38   83 1
    80   38   84 1
    81   38   85 1
    82   39   44 ar
    83   39   40 ar
    84   40   41 ar
    85   40   86 1
    86   41   42 ar
    87   41   87 1
    88   42   43 ar
    89   42   88 1
    90   43   44 ar
    91   43   89 1
    92   44   90 1
    93   45   91 1
    94   46   92 1
@<TRIPOS>MOLECULE
CHEMBL59128__3
   93    95     0     0     0
SMALL
USER_CHARGES

@<TRIPOS>ATOM
      1 C1          0.2203    0.0741   -1.2037 C.3       1 <0>        -0.1537
      2 C2          0.4903   -1.4317   -1.2250 C.3       1 <0>        -0.0938
      3 C3          1.4341   -1.7643   -2.3824 C.3       1 <0>        -0.1486
      4 C4          1.1359   -1.8529    0.0966 C.3       1 <0>        -0.1264
      5 C5          0.1437   -1.6357    1.2409 C.3       1 <0>         0.1137
      6 N1          0.7619   -2.0390    2.5064 N.am      1 <0>        -0.7280
      7 C6          0.0693   -1.9351    3.6579 C.2       1 <0>         0.5484
      8 O1         -1.0688   -1.5067    3.6464 O.2       1 <0>        -0.5341
      9 C7          0.6900   -2.3400    4.9286 C.2       1 <0>        -0.1825
     10 C8          0.0065   -2.2376    6.0649 C.2       1 <0>        -0.0794
     11 C9          2.1003   -2.8710    4.9428 C.3       1 <0>        -0.1120
     12 C10         2.0835   -4.3710    4.6421 C.3       1 <0>         0.1003
     13 H1          1.5623   -4.5472    3.7012 H         1 <0>         0.1175
     14 C11         3.5204   -4.8854    4.5332 C.3       1 <0>         0.1132
     15 H2          4.0346   -4.3594    3.7289 H         1 <0>         0.1075
     16 C12         3.5036   -6.3855    4.2325 C.3       1 <0>        -0.1249
     17 C13         4.9345   -6.8751    4.0004 C.3       1 <0>        -0.0780
     18 C14         5.5010   -6.2162    2.7412 C.3       1 <0>        -0.1069
     19 C15         6.9318   -6.7058    2.5090 C.3       1 <0>        -0.1091
     20 C16         6.9284   -8.2255    2.3319 C.3       1 <0>        -0.1234
     21 C17         6.3619   -8.8844    3.5912 C.3       1 <0>        -0.1156
     22 C18         4.9311   -8.3948    3.8233 C.3       1 <0>        -0.1175
     23 N2          4.2210   -4.6487    5.7979 N.am      1 <0>        -0.7160
     24 C19         5.5639   -4.5355    5.8134 C.2       1 <0>         0.5090
     25 O2          6.1923   -4.6296    4.7804 O.2       1 <0>        -0.4925
     26 C20         6.2845   -4.2919    7.1143 C.3       1 <0>         0.1253
     27 C21         5.7958   -2.9793    7.7301 C.3       1 <0>        -0.0710
     28 C22         6.4244   -2.7966    9.0874 C.2       1 <0>         0.0403
     29 C23         5.9705   -3.3123   10.2457 C.2       1 <0>         0.0552
     30 N3          6.8337   -2.9038   11.2263 N.pl3     1 <0>        -0.4983
     31 H3          6.7729   -3.1148   12.1712 H         1 <0>         0.4669
     32 C24         7.7858   -2.1522   10.6328 C.cat     1 <0>         0.3054
     33 N4          7.5373   -2.0965    9.3529 N.pl3     1 <0>        -0.4742
     34 N5          7.7259   -4.2079    6.8658 N.am      1 <0>        -0.7051
     35 C25         8.5977   -4.4962    7.8523 C.2       1 <0>         0.4927
     36 O3          8.1890   -4.8251    8.9458 O.2       1 <0>        -0.5249
     37 C26        10.0804   -4.4098    7.5967 C.3       1 <0>         0.1683
     38 C27        10.5506   -2.9687    7.8045 C.3       1 <0>        -0.1414
     39 C28        10.8088   -5.3187    8.5528 C.ar      1 <0>        -0.1186
     40 C29        11.4655   -6.4384    8.0775 C.ar      1 <0>        -0.1035
     41 C30        12.1337   -7.2722    8.9546 C.ar      1 <0>        -0.1135
     42 C31        12.1455   -6.9860   10.3069 C.ar      1 <0>        -0.1054
     43 C32        11.4895   -5.8659   10.7822 C.ar      1 <0>        -0.1218
     44 C33        10.8249   -5.0298    9.9046 C.ar      1 <0>        -0.0836
     45 O4         10.3564   -4.8118    6.2535 O.3       1 <0>        -0.5359
     46 O5          1.4093   -5.0607    5.6965 O.3       1 <0>        -0.5374
     47 H4          1.1603    0.6099   -1.0715 H         1 <0>         0.0549
     48 H5         -0.2396    0.3742   -2.1453 H         1 <0>         0.0584
     49 H6         -0.4520    0.3111   -0.3792 H         1 <0>         0.0575
     50 H7         -0.4497   -1.9675   -1.3572 H         1 <0>         0.0745
     51 H8          2.3740   -1.2285   -2.2502 H         1 <0>         0.0548
     52 H9          1.6264   -2.8371   -2.3976 H         1 <0>         0.0552
     53 H10         0.9741   -1.4643   -3.3240 H         1 <0>         0.0588
     54 H11         1.4092   -2.9069    0.0478 H         1 <0>         0.0693
     55 H12         2.0293   -1.2536    0.2718 H         1 <0>         0.0687
     56 H13        -0.1296   -0.5816    1.2896 H         1 <0>         0.0730
     57 H14        -0.7498   -2.2350    1.0657 H         1 <0>         0.0703
     58 H15         1.6696   -2.3807    2.5155 H         1 <0>         0.3962
     59 H16         0.4622   -2.5349    6.9978 H         1 <0>         0.1119
     60 H17        -1.0042   -1.8571    6.0547 H         1 <0>         0.1183
     61 H18         2.6903   -2.3551    4.1853 H         1 <0>         0.0833
     62 H19         2.5422   -2.7022    5.9248 H         1 <0>         0.0781
     63 H20         3.0690   -6.9205    5.0769 H         1 <0>         0.0729
     64 H21         2.9069   -6.5704    3.3393 H         1 <0>         0.0766
     65 H22         5.5526   -6.6107    4.8583 H         1 <0>         0.0691
     66 H23         4.8828   -6.4806    1.8832 H         1 <0>         0.0499
     67 H24         5.5034   -5.1335    2.8673 H         1 <0>         0.0749
     68 H25         7.3355   -6.2363    1.6119 H         1 <0>         0.0554
     69 H26         7.5500   -6.4414    3.3670 H         1 <0>         0.0598
     70 H27         6.3103   -8.4899    1.4740 H         1 <0>         0.0602
     71 H28         7.9478   -8.5743    2.1666 H         1 <0>         0.0581
     72 H29         6.3595   -9.9671    3.4650 H         1 <0>         0.0595
     73 H30         6.9801   -8.6200    4.4491 H         1 <0>         0.0542
     74 H31         4.5274   -8.8642    4.7204 H         1 <0>         0.0558
     75 H32         4.3129   -8.6592    2.9654 H         1 <0>         0.0616
     76 H33         3.7183   -4.5734    6.6241 H         1 <0>         0.3948
     77 H34         6.0816   -5.1133    7.8014 H         1 <0>         0.1256
     78 H35         6.0778   -2.1478    7.0841 H         1 <0>         0.1076
     79 H36         4.7111   -3.0079    7.8329 H         1 <0>         0.1235
     80 H37         5.0937   -3.9293   10.3759 H         1 <0>         0.2227
     81 H38         8.6173   -1.6789   11.1338 H         1 <0>         0.2619
     82 H39         8.0527   -3.9448    5.9912 H         1 <0>         0.4240
     83 H40        10.3401   -2.6621    8.8291 H         1 <0>         0.0679
     84 H41        11.6230   -2.9062    7.6197 H         1 <0>         0.0933
     85 H42        10.0237   -2.3113    7.1130 H         1 <0>         0.0719
     86 H43        11.4563   -6.6619    7.0209 H         1 <0>         0.1267
     87 H44        12.6462   -8.1473    8.5833 H         1 <0>         0.1291
     88 H45        12.6669   -7.6378   10.9923 H         1 <0>         0.1276
     89 H46        11.4984   -5.6425   11.8388 H         1 <0>         0.1244
     90 H47        10.3156   -4.1526   10.2754 H         1 <0>         0.1109
     91 H48        10.0840   -5.7171    6.0500 H         1 <0>         0.3890
     92 H49         1.8192   -4.9484    6.5651 H         1 <0>         0.3637
     93 H50         8.0721   -1.6222    8.6972 H         1 <0>         0.4577
@<TRIPOS>BOND
     1    1    2 1
     2    1   47 1
     3    1   48 1
     4    1   49 1
     5    2    3 1
     6    2    4 1
     7    2   50 1
     8    3   51 1
     9    3   52 1
    10    3   53 1
    11    4    5 1
    12    4   54 1
    13    4   55 1
    14    5    6 1
    15    5   56 1
    16    5   57 1
    17    6    7 am
    18    6   58 1
    19    7    8 2
    20    7    9 1
    21    9   10 2
    22    9   11 1
    23   10   59 1
    24   10   60 1
    25   11   12 1
    26   11   61 1
    27   11   62 1
    28   12   13 1
    29   12   14 1
    30   12   46 1
    31   14   15 1
    32   14   16 1
    33   14   23 1
    34   16   17 1
    35   16   63 1
    36   16   64 1
    37   17   22 1
    38   17   18 1
    39   17   65 1
    40   18   19 1
    41   18   66 1
    42   18   67 1
    43   19   20 1
    44   19   68 1
    45   19   69 1
    46   20   21 1
    47   20   70 1
    48   20   71 1
    49   21   22 1
    50   21   72 1
    51   21   73 1
    52   22   74 1
    53   22   75 1
    54   23   24 am
    55   23   76 1
    56   24   25 2
    57   24   26 1
    58   26   27 1
    59   26   34 1
    60   26   77 1
    61   27   28 1
    62   27   78 1
    63   27   79 1
    64   28   33 1
    65   28   29 2
    66   29   30 1
    67   29   80 1
    68   30   31 1
    69   30   32 1
    70   32   33 2
    71   32   81 1
    72   33   93 1
    73   34   35 am
    74   34   82 1
    75   35   36 2
    76   35   37 1
    77   37   38 1
    78   37   39 1
    79   37   45 1
    80   38   83 1
    81   38   84 1
    82   38   85 1
    83   39   44 ar
    84   39   40 ar
    85   40   41 ar
    86   40   86 1
    87   41   42 ar
    88   41   87 1
    89   42   43 ar
    90   42   88 1
    91   43   44 ar
    92   43   89 1
    93   44   90 1
    94   45   91 1
    95   46   92 1
@<TRIPOS>MOLECULE
CHEMBL59128__4
   92    94     0     0     0
SMALL
USER_CHARGES

@<TRIPOS>ATOM
      1 C1         -1.1362    0.0777    0.4084 C.3       1 <0>        -0.1535
      2 C2         -1.2536   -1.4326    0.1939 C.3       1 <0>        -0.0932
      3 C3         -2.7196   -1.8019   -0.0415 C.3       1 <0>        -0.1483
      4 C4         -0.4229   -1.8408   -1.0244 C.3       1 <0>        -0.1277
      5 C5          1.0587   -1.5863   -0.7399 C.3       1 <0>         0.1150
      6 N1          1.8541   -1.9772   -1.9064 N.am      1 <0>        -0.7284
      7 C6          3.1948   -1.8410   -1.8842 C.2       1 <0>         0.5514
      8 O1          3.7443   -1.3936   -0.8958 O.2       1 <0>        -0.5385
      9 C7          3.9935   -2.2335   -3.0555 C.2       1 <0>        -0.1814
     10 C8          5.3164   -2.0990   -3.0336 C.2       1 <0>        -0.0799
     11 C9          3.3126   -2.7878   -4.2803 C.3       1 <0>        -0.1149
     12 C10         3.0969   -4.2926   -4.1068 C.3       1 <0>         0.1022
     13 H1          2.5477   -4.4768   -3.1834 H         1 <0>         0.1140
     14 C11         2.2958   -4.8331   -5.2930 C.3       1 <0>         0.1132
     15 H2          1.3297   -4.3303   -5.3383 H         1 <0>         0.1050
     16 C12         2.0800   -6.3378   -5.1194 C.3       1 <0>        -0.1223
     17 C13         1.1747   -6.8556   -6.2389 C.3       1 <0>        -0.0808
     18 C14        -0.2144   -6.2291   -6.1023 C.3       1 <0>        -0.1050
     19 C15        -1.1197   -6.7470   -7.2218 C.3       1 <0>        -0.1106
     20 C16        -1.2348   -8.2693   -7.1216 C.3       1 <0>        -0.1210
     21 C17         0.1544   -8.8959   -7.2581 C.3       1 <0>        -0.1165
     22 C18         1.0597   -8.3780   -6.1387 C.3       1 <0>        -0.1156
     23 N2          3.0338   -4.5855   -6.5340 N.am      1 <0>        -0.7207
     24 C19         2.3724   -4.4948   -7.7048 C.2       1 <0>         0.5127
     25 O2          1.1661   -4.6181   -7.7309 O.2       1 <0>        -0.5031
     26 C20         3.1316   -4.2401   -8.9814 C.3       1 <0>         0.1345
     27 C21         3.8775   -2.9086   -8.8742 C.3       1 <0>        -0.0498
     28 C22         4.7332   -2.7121  -10.0991 C.2       1 <0>        -0.0178
     29 C23         4.3407   -2.1915  -11.2774 C.2       1 <0>        -0.0068
     30 N3          5.3979   -2.1893  -12.1029 N.2       1 <0>        -0.4853
     31 H3          6.6277   -3.4132   -9.5429 H         1 <0>         0.4144
     32 C24         6.4306   -2.6888  -11.4808 C.2       1 <0>         0.1933
     33 N4          6.0601   -3.0231  -10.2259 N.pl3     1 <0>        -0.5599
     34 N5          2.1931   -4.1850  -10.1050 N.am      1 <0>        -0.7062
     35 C25         2.6173   -4.4702  -11.3520 C.2       1 <0>         0.4986
     36 O3          3.7761   -4.7725  -11.5441 O.2       1 <0>        -0.5016
     37 C26         1.6519   -4.4135  -12.5078 C.3       1 <0>         0.1698
     38 C27         1.5589   -2.9764  -13.0246 C.3       1 <0>        -0.1391
     39 C28         2.1386   -5.3144  -13.6135 C.ar      1 <0>        -0.1108
     40 C29         1.4270   -6.4534  -13.9407 C.ar      1 <0>        -0.1090
     41 C30         1.8734   -7.2798  -14.9549 C.ar      1 <0>        -0.1244
     42 C31         3.0312   -6.9669  -15.6423 C.ar      1 <0>        -0.1136
     43 C32         3.7424   -5.8274  -15.3157 C.ar      1 <0>        -0.1230
     44 C33         3.2936   -4.9988  -14.3043 C.ar      1 <0>        -0.0729
     45 O4          0.3619   -4.8477  -12.0727 O.3       1 <0>        -0.5418
     46 O5          4.3634   -4.9517   -4.0473 O.3       1 <0>        -0.5416
     47 H4         -0.0918    0.3408    0.5760 H         1 <0>         0.0577
     48 H5         -1.5052    0.5998   -0.4745 H         1 <0>         0.0554
     49 H6         -1.7280    0.3685    1.2763 H         1 <0>         0.0569
     50 H7         -0.8846   -1.9547    1.0767 H         1 <0>         0.0735
     51 H8         -3.0885   -1.2798   -0.9243 H         1 <0>         0.0554
     52 H9         -2.8032   -2.8779   -0.1943 H         1 <0>         0.0551
     53 H10        -3.3114   -1.5111    0.8264 H         1 <0>         0.0573
     54 H11        -0.5766   -2.9000   -1.2306 H         1 <0>         0.0698
     55 H12        -0.7329   -1.2537   -1.8888 H         1 <0>         0.0700
     56 H13         1.2124   -0.5271   -0.5337 H         1 <0>         0.0719
     57 H14         1.3688   -2.1735    0.1246 H         1 <0>         0.0687
     58 H15         1.4159   -2.3340   -2.6948 H         1 <0>         0.3979
     59 H16         5.9028   -2.3872   -3.8935 H         1 <0>         0.1129
     60 H17         5.8044   -1.7017   -2.1558 H         1 <0>         0.1168
     61 H18         2.3494   -2.2957   -4.4146 H         1 <0>         0.0834
     62 H19         3.9372   -2.6089   -5.1555 H         1 <0>         0.0818
     63 H20         3.0411   -6.8501   -5.1631 H         1 <0>         0.0707
     64 H21         1.6101   -6.5286   -4.1546 H         1 <0>         0.0724
     65 H22         1.6014   -6.5863   -7.2051 H         1 <0>         0.0737
     66 H23        -0.6411   -6.4984   -5.1361 H         1 <0>         0.0462
     67 H24        -0.1325   -5.1445   -6.1737 H         1 <0>         0.0770
     68 H25        -2.1094   -6.3006   -7.1245 H         1 <0>         0.0541
     69 H26        -0.6930   -6.4777   -8.1880 H         1 <0>         0.0639
     70 H27        -1.6614   -8.5386   -6.1554 H         1 <0>         0.0574
     71 H28        -1.8797   -8.6383   -7.9191 H         1 <0>         0.0568
     72 H29         0.0724   -9.9804   -7.1867 H         1 <0>         0.0571
     73 H30         0.5811   -8.6265   -8.2243 H         1 <0>         0.0569
     74 H31         2.0493   -8.8244   -6.2359 H         1 <0>         0.0549
     75 H32         0.6330   -8.6473   -5.1725 H         1 <0>         0.0587
     76 H33         3.9986   -4.4869   -6.5131 H         1 <0>         0.3941
     77 H34         3.8475   -5.0455   -9.1452 H         1 <0>         0.1108
     78 H35         3.1575   -2.0937   -8.7995 H         1 <0>         0.0962
     79 H36         4.5102   -2.9170   -7.9866 H         1 <0>         0.0800
     80 H37         3.3485   -1.8377  -11.5160 H         1 <0>         0.1560
     81 H38         7.4187   -2.8114  -11.8992 H         1 <0>         0.2024
     82 H39         1.2663   -3.9432   -9.9514 H         1 <0>         0.4155
     83 H40         2.5429   -2.6452  -13.3565 H         1 <0>         0.0867
     84 H41         0.8606   -2.9354  -13.8605 H         1 <0>         0.0790
     85 H42         1.2069   -2.3248  -12.2248 H         1 <0>         0.0701
     86 H43         0.5224   -6.6979  -13.4037 H         1 <0>         0.1227
     87 H44         1.3178   -8.1701  -15.2101 H         1 <0>         0.1223
     88 H45         3.3804   -7.6130  -16.4342 H         1 <0>         0.1213
     89 H46         4.6471   -5.5832  -15.8525 H         1 <0>         0.1226
     90 H47         3.8472   -4.1065  -14.0516 H         1 <0>         0.1291
     91 H48         0.3458   -5.7524  -11.7315 H         1 <0>         0.3812
     92 H49         4.9072   -4.8307   -4.8377 H         1 <0>         0.3664
@<TRIPOS>BOND
     1    1    2 1
     2    1   47 1
     3    1   48 1
     4    1   49 1
     5    2    3 1
     6    2    4 1
     7    2   50 1
     8    3   51 1
     9    3   52 1
    10    3   53 1
    11    4    5 1
    12    4   54 1
    13    4   55 1
    14    5    6 1
    15    5   56 1
    16    5   57 1
    17    6    7 am
    18    6   58 1
    19    7    8 2
    20    7    9 1
    21    9   10 2
    22    9   11 1
    23   10   59 1
    24   10   60 1
    25   11   12 1
    26   11   61 1
    27   11   62 1
    28   12   13 1
    29   12   14 1
    30   12   46 1
    31   14   15 1
    32   14   16 1
    33   14   23 1
    34   16   17 1
    35   16   63 1
    36   16   64 1
    37   17   22 1
    38   17   18 1
    39   17   65 1
    40   18   19 1
    41   18   66 1
    42   18   67 1
    43   19   20 1
    44   19   68 1
    45   19   69 1
    46   20   21 1
    47   20   70 1
    48   20   71 1
    49   21   22 1
    50   21   72 1
    51   21   73 1
    52   22   74 1
    53   22   75 1
    54   23   24 am
    55   23   76 1
    56   24   25 2
    57   24   26 1
    58   26   27 1
    59   26   34 1
    60   26   77 1
    61   27   78 1
    62   27   79 1
    63   27   28 1
    64   28   29 2
    65   28   33 1
    66   29   30 1
    67   29   80 1
    68   30   32 2
    69   31   33 1
    70   32   81 1
    71   32   33 1
    72   34   35 am
    73   34   82 1
    74   35   36 2
    75   35   37 1
    76   37   38 1
    77   37   39 1
    78   37   45 1
    79   38   83 1
    80   38   84 1
    81   38   85 1
    82   39   44 ar
    83   39   40 ar
    84   40   41 ar
    85   40   86 1
    86   41   42 ar
    87   41   87 1
    88   42   43 ar
    89   42   88 1
    90   43   44 ar
    91   43   89 1
    92   44   90 1
    93   45   91 1
    94   46   92 1
@<TRIPOS>MOLECULE
CHEMBL59128__5
   92    94     0     0     0
SMALL
USER_CHARGES

@<TRIPOS>ATOM
      1 C1         -1.1523    0.0480    0.4152 C.3       1 <0>        -0.1534
      2 C2         -1.2680   -1.4620    0.1974 C.3       1 <0>        -0.0932
      3 C3         -2.7335   -1.8322   -0.0401 C.3       1 <0>        -0.1482
      4 C4         -0.4358   -1.8668   -1.0209 C.3       1 <0>        -0.1278
      5 C5          1.0453   -1.6115   -0.7345 C.3       1 <0>         0.1153
      6 N1          1.8421   -1.9992   -1.9012 N.am      1 <0>        -0.7287
      7 C6          3.1827   -1.8617   -1.8774 C.2       1 <0>         0.5520
      8 O1          3.7308   -1.4158   -0.8876 O.2       1 <0>        -0.5395
      9 C7          3.9828   -2.2509   -3.0488 C.2       1 <0>        -0.1822
     10 C8          5.3056   -2.1152   -3.0254 C.2       1 <0>        -0.0793
     11 C9          3.3036   -2.8034   -4.2754 C.3       1 <0>        -0.1152
     12 C10         3.0891   -4.3087   -4.1052 C.3       1 <0>         0.1027
     13 H1          2.5393   -4.4954   -3.1827 H         1 <0>         0.1124
     14 C11         2.2897   -4.8475   -5.2933 C.3       1 <0>         0.1135
     15 H2          1.3232   -4.3456   -5.3384 H         1 <0>         0.1032
     16 C12         2.0752   -6.3528   -5.1231 C.3       1 <0>        -0.1222
     17 C13         1.1714   -6.8692   -6.2444 C.3       1 <0>        -0.0808
     18 C14        -0.2184   -6.2443   -6.1078 C.3       1 <0>        -0.1045
     19 C15        -1.1222   -6.7607   -7.2292 C.3       1 <0>        -0.1103
     20 C16        -1.2358   -8.2834   -7.1323 C.3       1 <0>        -0.1207
     21 C17         0.1541   -8.9083   -7.2688 C.3       1 <0>        -0.1164
     22 C18         1.0578   -8.3919   -6.1475 C.3       1 <0>        -0.1156
     23 N2          3.0286   -4.5966   -6.5331 N.am      1 <0>        -0.7203
     24 C19         2.3681   -4.5041   -7.7043 C.2       1 <0>         0.5131
     25 O2          1.1620   -4.6285   -7.7318 O.2       1 <0>        -0.5110
     26 C20         3.1282   -4.2460   -8.9797 C.3       1 <0>         0.1374
     27 C21         3.8728   -2.9140   -8.8691 C.3       1 <0>        -0.0381
     28 C22         4.7293   -2.7141  -10.0928 C.2       1 <0>         0.0089
     29 C23         4.7015   -1.6459  -10.9123 C.2       1 <0>        -0.0584
     30 N3          5.6340   -1.8714  -11.8887 N.pl3     1 <0>        -0.5718
     31 H3          5.8485   -1.2804  -12.6273 H         1 <0>         0.4167
     32 C24         6.1995   -3.0705  -11.6316 C.2       1 <0>         0.1944
     33 N4          5.6570   -3.5664  -10.5532 N.2       1 <0>        -0.4508
     34 N5          2.1907   -4.1895  -10.1040 N.am      1 <0>        -0.7046
     35 C25         2.6163   -4.4717  -11.3513 C.2       1 <0>         0.4889
     36 O3          3.7755   -4.7724  -11.5429 O.2       1 <0>        -0.4879
     37 C26         1.6519   -4.4135  -12.5078 C.3       1 <0>         0.1666
     38 C27         1.5607   -2.9761  -13.0240 C.3       1 <0>        -0.1303
     39 C28         2.1386   -5.3144  -13.6135 C.ar      1 <0>        -0.1070
     40 C29         1.4270   -6.4534  -13.9407 C.ar      1 <0>        -0.1081
     41 C30         1.8734   -7.2798  -14.9549 C.ar      1 <0>        -0.1214
     42 C31         3.0312   -6.9669  -15.6423 C.ar      1 <0>        -0.1137
     43 C32         3.7424   -5.8274  -15.3157 C.ar      1 <0>        -0.1228
     44 C33         3.2936   -4.9988  -14.3043 C.ar      1 <0>        -0.0751
     45 O4          0.3611   -4.8466  -12.0739 O.3       1 <0>        -0.5425
     46 O5          4.3562   -4.9667   -4.0460 O.3       1 <0>        -0.5429
     47 H4         -0.1084    0.3118    0.5844 H         1 <0>         0.0578
     48 H5         -1.5210    0.5716   -0.4669 H         1 <0>         0.0553
     49 H6         -1.7452    0.3364    1.2832 H         1 <0>         0.0566
     50 H7         -0.8994   -1.9856    1.0795 H         1 <0>         0.0735
     51 H8         -3.1021   -1.3087   -0.9221 H         1 <0>         0.0552
     52 H9         -2.8159   -2.9080   -0.1952 H         1 <0>         0.0552
     53 H10        -3.3263   -1.5438    0.8279 H         1 <0>         0.0571
     54 H11        -0.5883   -2.9258   -1.2295 H         1 <0>         0.0700
     55 H12        -0.7457   -1.2782   -1.8844 H         1 <0>         0.0698
     56 H13         1.1977   -0.5526   -0.5260 H         1 <0>         0.0714
     57 H14         1.3551   -2.2001    0.1289 H         1 <0>         0.0684
     58 H15         1.4050   -2.3548   -2.6907 H         1 <0>         0.3982
     59 H16         5.8930   -2.4010   -3.8855 H         1 <0>         0.1145
     60 H17         5.7923   -1.7193   -2.1464 H         1 <0>         0.1161
     61 H18         2.3399   -2.3120   -4.4096 H         1 <0>         0.0822
     62 H19         3.9288   -2.6220   -5.1497 H         1 <0>         0.0837
     63 H20         3.0369   -6.8641   -5.1669 H         1 <0>         0.0714
     64 H21         1.6046   -6.5460   -4.1591 H         1 <0>         0.0709
     65 H22         1.5987   -6.5975   -7.2097 H         1 <0>         0.0750
     66 H23        -0.6457   -6.5161   -5.1426 H         1 <0>         0.0452
     67 H24        -0.1375   -5.1595   -6.1769 H         1 <0>         0.0772
     68 H25        -2.1124   -6.3156   -7.1319 H         1 <0>         0.0530
     69 H26        -0.6949   -6.4890   -8.1944 H         1 <0>         0.0639
     70 H27        -1.6631   -8.5552   -6.1670 H         1 <0>         0.0569
     71 H28        -1.8797   -8.6513   -7.9311 H         1 <0>         0.0559
     72 H29         0.0731   -9.9931   -7.1998 H         1 <0>         0.0566
     73 H30         0.5813   -8.6365   -8.2341 H         1 <0>         0.0573
     74 H31         2.0480   -8.8370   -6.2448 H         1 <0>         0.0555
     75 H32         0.6305   -8.6636   -5.1822 H         1 <0>         0.0580
     76 H33         3.9932   -4.4971   -6.5112 H         1 <0>         0.3969
     77 H34         3.8451   -5.0504   -9.1445 H         1 <0>         0.1208
     78 H35         3.1518   -2.1000   -8.7933 H         1 <0>         0.0801
     79 H36         4.5046   -2.9236   -7.9809 H         1 <0>         0.0824
     80 H37         4.0655   -0.7782  -10.8176 H         1 <0>         0.1662
     81 H38         6.9751   -3.5395  -12.2188 H         1 <0>         0.1992
     82 H39         1.2635   -3.9490   -9.9508 H         1 <0>         0.4116
     83 H40         2.5453   -2.6458  -13.3550 H         1 <0>         0.0737
     84 H41         0.8632   -2.9340  -13.8605 H         1 <0>         0.0765
     85 H42         1.2087   -2.3245  -12.2243 H         1 <0>         0.0702
     86 H43         0.5224   -6.6979  -13.4037 H         1 <0>         0.1236
     87 H44         1.3178   -8.1701  -15.2101 H         1 <0>         0.1233
     88 H45         3.3804   -7.6130  -16.4342 H         1 <0>         0.1220
     89 H46         4.6471   -5.5832  -15.8525 H         1 <0>         0.1217
     90 H47         3.8472   -4.1065  -14.0516 H         1 <0>         0.1187
     91 H48         0.3438   -5.7514  -11.7332 H         1 <0>         0.3824
     92 H49         4.9006   -4.8435   -4.8357 H         1 <0>         0.3689
@<TRIPOS>BOND
     1    1    2 1
     2    1   47 1
     3    1   48 1
     4    1   49 1
     5    2    3 1
     6    2    4 1
     7    2   50 1
     8    3   51 1
     9    3   52 1
    10    3   53 1
    11    4    5 1
    12    4   54 1
    13    4   55 1
    14    5    6 1
    15    5   56 1
    16    5   57 1
    17    6    7 am
    18    6   58 1
    19    7    8 2
    20    7    9 1
    21    9   10 2
    22    9   11 1
    23   10   59 1
    24   10   60 1
    25   11   12 1
    26   11   61 1
    27   11   62 1
    28   12   13 1
    29   12   14 1
    30   12   46 1
    31   14   15 1
    32   14   16 1
    33   14   23 1
    34   16   17 1
    35   16   63 1
    36   16   64 1
    37   17   22 1
    38   17   18 1
    39   17   65 1
    40   18   19 1
    41   18   66 1
    42   18   67 1
    43   19   20 1
    44   19   68 1
    45   19   69 1
    46   20   21 1
    47   20   70 1
    48   20   71 1
    49   21   22 1
    50   21   72 1
    51   21   73 1
    52   22   74 1
    53   22   75 1
    54   23   24 am
    55   23   76 1
    56   24   25 2
    57   24   26 1
    58   26   27 1
    59   26   34 1
    60   26   77 1
    61   27   28 1
    62   27   78 1
    63   27   79 1
    64   28   33 1
    65   28   29 2
    66   29   30 1
    67   29   80 1
    68   30   31 1
    69   30   32 1
    70   32   33 2
    71   32   81 1
    72   34   35 am
    73   34   82 1
    74   35   36 2
    75   35   37 1
    76   37   38 1
    77   37   39 1
    78   37   45 1
    79   38   83 1
    80   38   84 1
    81   38   85 1
    82   39   44 ar
    83   39   40 ar
    84   40   41 ar
    85   40   86 1
    86   41   42 ar
    87   41   87 1
    88   42   43 ar
    89   42   88 1
    90   43   44 ar
    91   43   89 1
    92   44   90 1
    93   45   91 1
    94   46   92 1
@<TRIPOS>MOLECULE
CHEMBL59128__6
   93    95     0     0     0
SMALL
USER_CHARGES

@<TRIPOS>ATOM
      1 C1          0.1127    0.5176   -0.7357 C.3       1 <0>        -0.1539
      2 C2          0.1520   -1.0032   -0.5727 C.3       1 <0>        -0.0936
      3 C3          0.9054   -1.6232   -1.7512 C.3       1 <0>        -0.1485
      4 C4          0.8666   -1.3579    0.7329 C.3       1 <0>        -0.1266
      5 C5          0.0470   -0.8447    1.9186 C.3       1 <0>         0.1138
      6 N1          0.7313   -1.1843    3.1687 N.am      1 <0>        -0.7280
      7 C6          0.1901   -0.8295    4.3510 C.2       1 <0>         0.5488
      8 O1         -0.8662   -0.2276    4.3801 O.2       1 <0>        -0.5341
      9 C7          0.8772   -1.1705    5.6062 C.2       1 <0>        -0.1819
     10 C8          0.3432   -0.8205    6.7728 C.2       1 <0>        -0.0796
     11 C9          2.1861   -1.9165    5.5701 C.3       1 <0>        -0.1132
     12 C10         1.9142   -3.4196    5.4818 C.3       1 <0>         0.1006
     13 H1          1.2741   -3.6232    4.6234 H         1 <0>         0.1181
     14 C11         3.2384   -4.1687    5.3197 C.3       1 <0>         0.1126
     15 H2          3.7354   -3.8352    4.4087 H         1 <0>         0.1076
     16 C12         2.9666   -5.6718    5.2315 C.3       1 <0>        -0.1238
     17 C13         4.2752   -6.4108    4.9449 C.3       1 <0>        -0.0775
     18 C14         4.7942   -6.0114    3.5621 C.3       1 <0>        -0.1087
     19 C15         6.1029   -6.7504    3.2755 C.3       1 <0>        -0.1095
     20 C16         5.8545   -8.2597    3.3107 C.3       1 <0>        -0.1242
     21 C17         5.3356   -8.6591    4.6935 C.3       1 <0>        -0.1152
     22 C18         4.0269   -7.9201    4.9801 C.3       1 <0>        -0.1175
     23 N2          4.0987   -3.8950    6.4735 N.am      1 <0>        -0.7168
     24 C19         5.4373   -3.9992    6.3558 C.2       1 <0>         0.5088
     25 O2          5.9296   -4.3195    5.2947 O.2       1 <0>        -0.4898
     26 C20         6.3223   -3.7176    7.5426 C.3       1 <0>         0.1273
     27 C21         5.9749   -4.6824    8.6781 C.3       1 <0>        -0.0726
     28 C22         6.7727   -4.3224    9.9049 C.2       1 <0>         0.0457
     29 C23         8.0295   -4.7222   10.1770 C.2       1 <0>         0.0378
     30 N3          8.3685   -4.1697   11.3826 N.pl3     1 <0>        -0.5025
     31 H3          9.2139   -4.2748   11.8466 H         1 <0>         0.4652
     32 C24         7.3063   -3.4511   11.8056 C.cat     1 <0>         0.3144
     33 N4          6.3574   -3.5429   10.9144 N.pl3     1 <0>        -0.4671
     34 N5          7.7248   -3.8986    7.1598 N.am      1 <0>        -0.7028
     35 C25         8.6961   -3.2513    7.8336 C.2       1 <0>         0.4992
     36 O3          8.4092   -2.5189    8.7567 O.2       1 <0>        -0.5302
     37 C26        10.1388   -3.4375    7.4398 C.3       1 <0>         0.1687
     38 C27        10.6953   -4.6902    8.1194 C.3       1 <0>        -0.1424
     39 C28        10.9369   -2.2347    7.8726 C.ar      1 <0>        -0.1172
     40 C29        11.1317   -1.9819    9.2176 C.ar      1 <0>        -0.0834
     41 C30        11.8637   -0.8785    9.6146 C.ar      1 <0>        -0.1225
     42 C31        12.4014   -0.0282    8.6665 C.ar      1 <0>        -0.1060
     43 C32        12.2074   -0.2816    7.3215 C.ar      1 <0>        -0.1138
     44 C33        11.4790   -1.3873    6.9244 C.ar      1 <0>        -0.1039
     45 O4         10.2302   -3.5846    6.0214 O.3       1 <0>        -0.5355
     46 O5          1.2627   -3.8567    6.6762 O.3       1 <0>        -0.5374
     47 H4          1.1306    0.9066   -0.7614 H         1 <0>         0.0551
     48 H5         -0.3964    0.7702   -1.6658 H         1 <0>         0.0584
     49 H6         -0.4240    0.9593    0.1039 H         1 <0>         0.0576
     50 H7         -0.8659   -1.3922   -0.5470 H         1 <0>         0.0744
     51 H8          1.9232   -1.2342   -1.7768 H         1 <0>         0.0549
     52 H9          0.9333   -2.7067   -1.6350 H         1 <0>         0.0550
     53 H10         0.3963   -1.3706   -2.6813 H         1 <0>         0.0588
     54 H11         0.9733   -2.4402    0.8063 H         1 <0>         0.0692
     55 H12         1.8528   -0.8939    0.7449 H         1 <0>         0.0690
     56 H13        -0.0597    0.2376    1.8452 H         1 <0>         0.0731
     57 H14        -0.9392   -1.3086    1.9066 H         1 <0>         0.0703
     58 H15         1.5738   -1.6644    3.1455 H         1 <0>         0.3962
     59 H16         0.8476   -1.0709    7.6944 H         1 <0>         0.1111
     60 H17        -0.5948   -0.2859    6.7987 H         1 <0>         0.1187
     61 H18         2.7611   -1.5996    4.7000 H         1 <0>         0.0835
     62 H19         2.7515   -1.7022    6.4770 H         1 <0>         0.0784
     63 H20         2.5509   -6.0219    6.1763 H         1 <0>         0.0725
     64 H21         2.2562   -5.8659    4.4279 H         1 <0>         0.0770
     65 H22         5.0148   -6.1465    5.7008 H         1 <0>         0.0688
     66 H23         4.0547   -6.2757    2.8062 H         1 <0>         0.0502
     67 H24         4.9711   -4.9362    3.5370 H         1 <0>         0.0755
     68 H25         6.4726   -6.4659    2.2904 H         1 <0>         0.0559
     69 H26         6.8424   -6.4862    4.0314 H         1 <0>         0.0606
     70 H27         5.1150   -8.5240    2.5548 H         1 <0>         0.0601
     71 H28         6.7869   -8.7862    3.1066 H         1 <0>         0.0587
     72 H29         5.1586   -9.7343    4.7186 H         1 <0>         0.0593
     73 H30         6.0751   -8.3948    5.4494 H         1 <0>         0.0548
     74 H31         3.6572   -8.2046    5.9652 H         1 <0>         0.0555
     75 H32         3.2874   -8.1843    4.2242 H         1 <0>         0.0617
     76 H33         3.7050   -3.6388    7.3222 H         1 <0>         0.3930
     77 H34         6.1664   -2.6919    7.8769 H         1 <0>         0.1201
     78 H35         4.9107   -4.6110    8.9028 H         1 <0>         0.1105
     79 H36         6.2146   -5.7016    8.3750 H         1 <0>         0.1228
     80 H37         8.6505   -5.3570    9.5624 H         1 <0>         0.2140
     81 H38         7.2525   -2.8899   12.7268 H         1 <0>         0.2648
     82 H39         7.9543   -4.4844    6.4215 H         1 <0>         0.4250
     83 H40        10.1181   -5.5602    7.8064 H         1 <0>         0.0754
     84 H41        11.7388   -4.8249    7.8346 H         1 <0>         0.0919
     85 H42        10.6256   -4.5780    9.2014 H         1 <0>         0.0697
     86 H43        10.7116   -2.6462    9.9583 H         1 <0>         0.1100
     87 H44        12.0153   -0.6806   10.6654 H         1 <0>         0.1239
     88 H45        12.9728    0.8342    8.9767 H         1 <0>         0.1273
     89 H46        12.6272    0.3829    6.5808 H         1 <0>         0.1290
     90 H47        11.3306   -1.5873    5.8735 H         1 <0>         0.1272
     91 H48         9.8946   -2.8258    5.5248 H         1 <0>         0.3882
     92 H49         1.7761   -3.7065    7.4818 H         1 <0>         0.3620
     93 H50         5.4883   -3.1163   10.9735 H         1 <0>         0.4620
@<TRIPOS>BOND
     1    1    2 1
     2    1   47 1
     3    1   48 1
     4    1   49 1
     5    2    3 1
     6    2    4 1
     7    2   50 1
     8    3   51 1
     9    3   52 1
    10    3   53 1
    11    4    5 1
    12    4   54 1
    13    4   55 1
    14    5    6 1
    15    5   56 1
    16    5   57 1
    17    6    7 am
    18    6   58 1
    19    7    8 2
    20    7    9 1
    21    9   10 2
    22    9   11 1
    23   10   59 1
    24   10   60 1
    25   11   12 1
    26   11   61 1
    27   11   62 1
    28   12   13 1
    29   12   14 1
    30   12   46 1
    31   14   15 1
    32   14   16 1
    33   14   23 1
    34   16   17 1
    35   16   63 1
    36   16   64 1
    37   17   22 1
    38   17   18 1
    39   17   65 1
    40   18   19 1
    41   18   66 1
    42   18   67 1
    43   19   20 1
    44   19   68 1
    45   19   69 1
    46   20   21 1
    47   20   70 1
    48   20   71 1
    49   21   22 1
    50   21   72 1
    51   21   73 1
    52   22   74 1
    53   22   75 1
    54   23   24 am
    55   23   76 1
    56   24   25 2
    57   24   26 1
    58   26   27 1
    59   26   34 1
    60   26   77 1
    61   27   28 1
    62   27   78 1
    63   27   79 1
    64   28   33 1
    65   28   29 2
    66   29   30 1
    67   29   80 1
    68   30   31 1
    69   30   32 1
    70   32   33 2
    71   32   81 1
    72   33   93 1
    73   34   35 am
    74   34   82 1
    75   35   36 2
    76   35   37 1
    77   37   38 1
    78   37   39 1
    79   37   45 1
    80   38   83 1
    81   38   84 1
    82   38   85 1
    83   39   44 ar
    84   39   40 ar
    85   40   41 ar
    86   40   86 1
    87   41   42 ar
    88   41   87 1
    89   42   43 ar
    90   42   88 1
    91   43   44 ar
    92   43   89 1
    93   44   90 1
    94   45   91 1
    95   46   92 1
@<TRIPOS>MOLECULE
CHEMBL59128__7
   92    94     0     0     0
SMALL
USER_CHARGES

@<TRIPOS>ATOM
      1 C1         -0.7024    0.5235    0.2666 C.3       1 <0>        -0.1535
      2 C2         -0.5450   -0.9945    0.1588 C.3       1 <0>        -0.0931
      3 C3         -1.9272   -1.6476    0.0983 C.3       1 <0>        -0.1482
      4 C4          0.2370   -1.3372   -1.1108 C.3       1 <0>        -0.1277
      5 C5          1.6611   -0.7897   -0.9961 C.3       1 <0>         0.1151
      6 N1          2.4099   -1.1179   -2.2118 N.am      1 <0>        -0.7289
      7 C6          3.6956   -0.7333   -2.3357 C.2       1 <0>         0.5519
      8 O1          4.2343   -0.1140   -1.4384 O.2       1 <0>        -0.5387
      9 C7          4.4475   -1.0628   -3.5564 C.2       1 <0>        -0.1831
     10 C8          5.7163   -0.6834   -3.6787 C.2       1 <0>        -0.0782
     11 C9          3.7800   -1.8303   -4.6684 C.3       1 <0>        -0.1156
     12 C10         3.8748   -3.3302   -4.3812 C.3       1 <0>         0.1027
     13 H1          3.4559   -3.5388   -3.3968 H         1 <0>         0.1134
     14 C11         3.0906   -4.1033   -5.4434 C.3       1 <0>         0.1131
     15 H2          2.0456   -3.7943   -5.4202 H         1 <0>         0.1035
     16 C12         3.1854   -5.6031   -5.1563 C.3       1 <0>        -0.1220
     17 C13         2.3009   -6.3682   -6.1429 C.3       1 <0>        -0.0801
     18 C14         0.8348   -6.0020   -5.9034 C.3       1 <0>        -0.1058
     19 C15        -0.0496   -6.7671   -6.8900 C.3       1 <0>        -0.1103
     20 C16         0.1405   -8.2713   -6.6849 C.3       1 <0>        -0.1215
     21 C17         1.6066   -8.6374   -6.9244 C.3       1 <0>        -0.1161
     22 C18         2.4910   -7.8724   -5.9378 C.3       1 <0>        -0.1159
     23 N2          3.6536   -3.8229   -6.7666 N.am      1 <0>        -0.7194
     24 C19         2.8854   -3.9507   -7.8666 C.2       1 <0>         0.5131
     25 O2          1.7282   -4.2979   -7.7611 O.2       1 <0>        -0.5069
     26 C20         3.4645   -3.6622   -9.2277 C.3       1 <0>         0.1319
     27 C21         4.6441   -4.6009   -9.4894 C.3       1 <0>        -0.0493
     28 C22         5.2995   -4.2318  -10.7953 C.2       1 <0>        -0.0152
     29 C23         6.2416   -3.2878  -10.9821 C.2       1 <0>        -0.0007
     30 N3          6.5609   -3.2723  -12.2847 N.2       1 <0>        -0.4831
     31 H3          4.4268   -5.5092  -12.2084 H         1 <0>         0.4106
     32 C24         5.8525   -4.1708  -12.9122 C.2       1 <0>         0.1892
     33 N4          5.0560   -4.7958  -12.0185 N.pl3     1 <0>        -0.5636
     34 N5          2.4367   -3.8727  -10.2502 N.am      1 <0>        -0.7077
     35 C25         2.5197   -3.2291  -11.4315 C.2       1 <0>         0.4881
     36 O3          3.4452   -2.4758  -11.6480 O.2       1 <0>        -0.4928
     37 C26         1.4625   -3.4456  -12.4834 C.3       1 <0>         0.1685
     38 C27         1.8042   -4.6930  -13.3008 C.3       1 <0>        -0.1366
     39 C28         1.4082   -2.2469  -13.3951 C.ar      1 <0>        -0.1123
     40 C29         2.4690   -1.9703  -14.2371 C.ar      1 <0>        -0.0744
     41 C30         2.4192   -0.8708  -15.0735 C.ar      1 <0>        -0.1206
     42 C31         1.3083   -0.0482  -15.0681 C.ar      1 <0>        -0.1117
     43 C32         0.2471   -0.3253  -14.2268 C.ar      1 <0>        -0.1219
     44 C33         0.2951   -1.4272  -13.3936 C.ar      1 <0>        -0.1083
     45 O4          0.1924   -3.6224  -11.8529 O.3       1 <0>        -0.5414
     46 O5          5.2448   -3.7353   -4.4116 O.3       1 <0>        -0.5418
     47 H4          0.2823    0.9888    0.3097 H         1 <0>         0.0579
     48 H5         -1.2423    0.8956   -0.6041 H         1 <0>         0.0553
     49 H6         -1.2595    0.7677    1.1711 H         1 <0>         0.0568
     50 H7         -0.0051   -1.3666    1.0296 H         1 <0>         0.0736
     51 H8         -2.4671   -1.2756   -0.7725 H         1 <0>         0.0551
     52 H9         -1.8151   -2.7291    0.0215 H         1 <0>         0.0551
     53 H10        -2.4843   -1.4035    1.0028 H         1 <0>         0.0573
     54 H11         0.2728   -2.4196   -1.2345 H         1 <0>         0.0697
     55 H12        -0.2561   -0.8891   -1.9734 H         1 <0>         0.0696
     56 H13         1.6253    0.2927   -0.8724 H         1 <0>         0.0716
     57 H14         2.1543   -1.2379   -0.1335 H         1 <0>         0.0687
     58 H15         1.9802   -1.6119   -2.9275 H         1 <0>         0.3978
     59 H16         6.2683   -0.9253   -4.5749 H         1 <0>         0.1147
     60 H17         6.1946   -0.1334   -2.8818 H         1 <0>         0.1167
     61 H18         2.7319   -1.5383   -4.7332 H         1 <0>         0.0818
     62 H19         4.2779   -1.6090   -5.6124 H         1 <0>         0.0834
     63 H20         4.2195   -5.9296   -5.2667 H         1 <0>         0.0722
     64 H21         2.8489   -5.8002   -4.1384 H         1 <0>         0.0721
     65 H22         2.5799   -6.1024   -7.1625 H         1 <0>         0.0736
     66 H23         0.5559   -6.2678   -4.8837 H         1 <0>         0.0464
     67 H24         0.6994   -4.9304   -6.0495 H         1 <0>         0.0770
     68 H25        -1.0941   -6.5062   -6.7193 H         1 <0>         0.0536
     69 H26         0.2293   -6.5013   -7.9096 H         1 <0>         0.0628
     70 H27        -0.1385   -8.5371   -5.6652 H         1 <0>         0.0577
     71 H28        -0.4896   -8.8163   -7.3877 H         1 <0>         0.0565
     72 H29         1.7420   -9.7091   -6.7783 H         1 <0>         0.0571
     73 H30         1.8855   -8.3716   -7.9440 H         1 <0>         0.0565
     74 H31         3.5355   -8.1332   -6.1084 H         1 <0>         0.0558
     75 H32         2.2121   -8.1382   -4.9182 H         1 <0>         0.0588
     76 H33         4.5791   -3.5452   -6.8509 H         1 <0>         0.3966
     77 H34         3.8077   -2.6283   -9.2648 H         1 <0>         0.1181
     78 H35         5.3686   -4.5083   -8.6803 H         1 <0>         0.0982
     79 H36         4.2859   -5.6290   -9.5405 H         1 <0>         0.0789
     80 H37         6.6657   -2.6543  -10.2171 H         1 <0>         0.1603
     81 H38         5.8981   -4.3820  -13.9704 H         1 <0>         0.2001
     82 H39         1.6965   -4.4752  -10.0771 H         1 <0>         0.4142
     83 H40         1.8435   -5.5600  -12.6413 H         1 <0>         0.0686
     84 H41         1.0395   -4.8496  -14.0616 H         1 <0>         0.0828
     85 H42         2.7730   -4.5582  -13.7817 H         1 <0>         0.0755
     86 H43         3.3369   -2.6131  -14.2413 H         1 <0>         0.1213
     87 H44         3.2483   -0.6543  -15.7308 H         1 <0>         0.1241
     88 H45         1.2697    0.8113  -15.7210 H         1 <0>         0.1230
     89 H46        -0.6207    0.3177  -14.2224 H         1 <0>         0.1237
     90 H47        -0.5356   -1.6458  -12.7389 H         1 <0>         0.1233
     91 H48        -0.0889   -2.8685  -11.3166 H         1 <0>         0.3836
     92 H49         5.6825   -3.5789   -5.2596 H         1 <0>         0.3679
@<TRIPOS>BOND
     1    1    2 1
     2    1   47 1
     3    1   48 1
     4    1   49 1
     5    2    3 1
     6    2    4 1
     7    2   50 1
     8    3   51 1
     9    3   52 1
    10    3   53 1
    11    4    5 1
    12    4   54 1
    13    4   55 1
    14    5    6 1
    15    5   56 1
    16    5   57 1
    17    6    7 am
    18    6   58 1
    19    7    8 2
    20    7    9 1
    21    9   10 2
    22    9   11 1
    23   10   59 1
    24   10   60 1
    25   11   12 1
    26   11   61 1
    27   11   62 1
    28   12   13 1
    29   12   14 1
    30   12   46 1
    31   14   15 1
    32   14   16 1
    33   14   23 1
    34   16   17 1
    35   16   63 1
    36   16   64 1
    37   17   22 1
    38   17   18 1
    39   17   65 1
    40   18   19 1
    41   18   66 1
    42   18   67 1
    43   19   20 1
    44   19   68 1
    45   19   69 1
    46   20   21 1
    47   20   70 1
    48   20   71 1
    49   21   22 1
    50   21   72 1
    51   21   73 1
    52   22   74 1
    53   22   75 1
    54   23   24 am
    55   23   76 1
    56   24   25 2
    57   24   26 1
    58   26   27 1
    59   26   34 1
    60   26   77 1
    61   27   78 1
    62   27   79 1
    63   27   28 1
    64   28   29 2
    65   28   33 1
    66   29   30 1
    67   29   80 1
    68   30   32 2
    69   31   33 1
    70   32   81 1
    71   32   33 1
    72   34   35 am
    73   34   82 1
    74   35   36 2
    75   35   37 1
    76   37   38 1
    77   37   39 1
    78   37   45 1
    79   38   83 1
    80   38   84 1
    81   38   85 1
    82   39   44 ar
    83   39   40 ar
    84   40   41 ar
    85   40   86 1
    86   41   42 ar
    87   41   87 1
    88   42   43 ar
    89   42   88 1
    90   43   44 ar
    91   43   89 1
    92   44   90 1
    93   45   91 1
    94   46   92 1
@<TRIPOS>MOLECULE
CHEMBL59128__8
   92    94     0     0     0
SMALL
USER_CHARGES

@<TRIPOS>ATOM
      1 C1         -0.7541    0.6301    0.2241 C.3       1 <0>        -0.1535
      2 C2         -0.6032   -0.8894    0.1286 C.3       1 <0>        -0.0930
      3 C3         -1.9882   -1.5365    0.0653 C.3       1 <0>        -0.1483
      4 C4          0.1841   -1.2454   -1.1341 C.3       1 <0>        -0.1279
      5 C5          1.6101   -0.7038   -1.0155 C.3       1 <0>         0.1152
      6 N1          2.3641   -1.0446   -2.2245 N.am      1 <0>        -0.7286
      7 C6          3.6523   -0.6671   -2.3442 C.2       1 <0>         0.5519
      8 O1          4.1889   -0.0435   -1.4486 O.2       1 <0>        -0.5394
      9 C7          4.4093   -1.0094   -3.5582 C.2       1 <0>        -0.1814
     10 C8          5.6806   -0.6369   -3.6762 C.2       1 <0>        -0.0801
     11 C9          3.7444   -1.7821   -4.6680 C.3       1 <0>        -0.1157
     12 C10         3.8304   -3.2802   -4.3690 C.3       1 <0>         0.1030
     13 H1          3.4052   -3.4794   -3.3854 H         1 <0>         0.1128
     14 C11         3.0485   -4.0576   -5.4297 C.3       1 <0>         0.1132
     15 H2          2.0049   -3.7435   -5.4147 H         1 <0>         0.1029
     16 C12         3.1346   -5.5557   -5.1307 C.3       1 <0>        -0.1212
     17 C13         2.2520   -6.3240   -6.1164 C.3       1 <0>        -0.0809
     18 C14         0.7863   -5.9492   -5.8879 C.3       1 <0>        -0.1051
     19 C15        -0.0963   -6.7175   -6.8736 C.3       1 <0>        -0.1109
     20 C16         0.0855   -8.2210   -6.6561 C.3       1 <0>        -0.1209
     21 C17         1.5512   -8.5958   -6.8847 C.3       1 <0>        -0.1168
     22 C18         2.4338   -7.8275   -5.8990 C.3       1 <0>        -0.1150
     23 N2          3.6201   -3.7899   -6.7518 N.am      1 <0>        -0.7219
     24 C19         2.8574   -3.9224   -7.8551 C.2       1 <0>         0.5120
     25 O2          1.6980   -4.2633   -7.7534 O.2       1 <0>        -0.5076
     26 C20         3.4454   -3.6470   -9.2150 C.3       1 <0>         0.1414
     27 C21         4.6219   -4.5931   -9.4631 C.3       1 <0>        -0.0389
     28 C22         5.2863   -4.2371  -10.7681 C.2       1 <0>         0.0038
     29 C23         6.5918   -3.9548  -10.9403 C.2       1 <0>        -0.0518
     30 N3          6.7673   -3.6895  -12.2716 N.pl3     1 <0>        -0.5698
     31 H3          7.6015   -3.4527  -12.7062 H         1 <0>         0.4175
     32 C24         5.5622   -3.8190  -12.8670 C.2       1 <0>         0.1840
     33 N4          4.6822   -4.1515  -11.9625 N.2       1 <0>        -0.4471
     34 N5          2.4223   -3.8603  -10.2417 N.am      1 <0>        -0.7059
     35 C25         2.5149   -3.2262  -11.4273 C.2       1 <0>         0.5258
     36 O3          3.4452   -2.4789  -11.6443 O.2       1 <0>        -0.5046
     37 C26         1.4625   -3.4456  -12.4834 C.3       1 <0>         0.1699
     38 C27         1.8112   -4.6918  -13.2996 C.3       1 <0>        -0.1214
     39 C28         1.4082   -2.2469  -13.3951 C.ar      1 <0>        -0.1030
     40 C29         2.4690   -1.9703  -14.2371 C.ar      1 <0>        -0.0752
     41 C30         2.4192   -0.8708  -15.0735 C.ar      1 <0>        -0.1257
     42 C31         1.3083   -0.0482  -15.0681 C.ar      1 <0>        -0.1165
     43 C32         0.2471   -0.3253  -14.2268 C.ar      1 <0>        -0.1229
     44 C33         0.2951   -1.4272  -13.3936 C.ar      1 <0>        -0.1110
     45 O4          0.1904   -3.6264  -11.8579 O.3       1 <0>        -0.5458
     46 O5          5.1987   -3.6920   -4.3887 O.3       1 <0>        -0.5424
     47 H4          0.2326    1.0911    0.2691 H         1 <0>         0.0577
     48 H5         -1.2873    0.9981   -0.6525 H         1 <0>         0.0553
     49 H6         -1.3150    0.8837    1.1236 H         1 <0>         0.0567
     50 H7         -0.0700   -1.2574    1.0051 H         1 <0>         0.0735
     51 H8         -2.5215   -1.1685   -0.8112 H         1 <0>         0.0553
     52 H9         -1.8808   -2.6190   -0.0027 H         1 <0>         0.0553
     53 H10        -2.5492   -1.2828    0.9648 H         1 <0>         0.0571
     54 H11         0.2154   -2.3288   -1.2494 H         1 <0>         0.0701
     55 H12        -0.3021   -0.8015   -2.0027 H         1 <0>         0.0699
     56 H13         1.5789    0.3797   -0.9003 H         1 <0>         0.0715
     57 H14         2.0964   -1.1477   -0.1469 H         1 <0>         0.0686
     58 H15         1.9361   -1.5420   -2.9389 H         1 <0>         0.3982
     59 H16         6.2363   -0.8881   -4.5675 H         1 <0>         0.1138
     60 H17         6.1571   -0.0831   -2.8809 H         1 <0>         0.1163
     61 H18         2.6980   -1.4857   -4.7408 H         1 <0>         0.0821
     62 H19         4.2485   -1.5702   -5.6109 H         1 <0>         0.0831
     63 H20         4.1677   -5.8878   -5.2330 H         1 <0>         0.0713
     64 H21         2.7915   -5.7434   -4.1133 H         1 <0>         0.0707
     65 H22         2.5378   -6.0672   -7.1365 H         1 <0>         0.0759
     66 H23         0.5005   -6.2059   -4.8678 H         1 <0>         0.0451
     67 H24         0.6568   -4.8780   -6.0428 H         1 <0>         0.0769
     68 H25        -1.1405   -6.4504   -6.7107 H         1 <0>         0.0530
     69 H26         0.1896   -6.4607   -7.8936 H         1 <0>         0.0648
     70 H27        -0.2003   -8.4777   -5.6360 H         1 <0>         0.0565
     71 H28        -0.5433   -8.7683   -7.3583 H         1 <0>         0.0564
     72 H29         1.6807   -9.6669   -6.7297 H         1 <0>         0.0563
     73 H30         1.8370   -8.3390   -7.9047 H         1 <0>         0.0586
     74 H31         3.4779   -8.0945   -6.0618 H         1 <0>         0.0554
     75 H32         2.1479   -8.0842   -4.8789 H         1 <0>         0.0575
     76 H33         4.5474   -3.5172   -6.8331 H         1 <0>         0.3949
     77 H34         3.7937   -2.6150   -9.2581 H         1 <0>         0.1082
     78 H35         5.3424   -4.4978   -8.6507 H         1 <0>         0.0817
     79 H36         4.2591   -5.6200   -9.5084 H         1 <0>         0.0813
     80 H37         7.3537   -3.9401  -10.1750 H         1 <0>         0.1688
     81 H38         5.3607   -3.6752  -13.9183 H         1 <0>         0.1957
     82 H39         1.6783   -4.4580  -10.0681 H         1 <0>         0.4103
     83 H40         1.8504   -5.5588  -12.6402 H         1 <0>         0.0683
     84 H41         1.0500   -4.8506  -14.0635 H         1 <0>         0.0671
     85 H42         2.7814   -4.5540  -13.7767 H         1 <0>         0.0819
     86 H43         3.3369   -2.6131  -14.2413 H         1 <0>         0.1236
     87 H44         3.2483   -0.6543  -15.7308 H         1 <0>         0.1205
     88 H45         1.2697    0.8113  -15.7210 H         1 <0>         0.1203
     89 H46        -0.6207    0.3177  -14.2224 H         1 <0>         0.1217
     90 H47        -0.5356   -1.6458  -12.7389 H         1 <0>         0.1229
     91 H48        -0.0952   -2.8734  -11.3226 H         1 <0>         0.3792
     92 H49         5.6418   -3.5441   -5.2354 H         1 <0>         0.3674
@<TRIPOS>BOND
     1    1    2 1
     2    1   47 1
     3    1   48 1
     4    1   49 1
     5    2    3 1
     6    2    4 1
     7    2   50 1
     8    3   51 1
     9    3   52 1
    10    3   53 1
    11    4    5 1
    12    4   54 1
    13    4   55 1
    14    5    6 1
    15    5   56 1
    16    5   57 1
    17    6    7 am
    18    6   58 1
    19    7    8 2
    20    7    9 1
    21    9   10 2
    22    9   11 1
    23   10   59 1
    24   10   60 1
    25   11   12 1
    26   11   61 1
    27   11   62 1
    28   12   13 1
    29   12   14 1
    30   12   46 1
    31   14   15 1
    32   14   16 1
    33   14   23 1
    34   16   17 1
    35   16   63 1
    36   16   64 1
    37   17   22 1
    38   17   18 1
    39   17   65 1
    40   18   19 1
    41   18   66 1
    42   18   67 1
    43   19   20 1
    44   19   68 1
    45   19   69 1
    46   20   21 1
    47   20   70 1
    48   20   71 1
    49   21   22 1
    50   21   72 1
    51   21   73 1
    52   22   74 1
    53   22   75 1
    54   23   24 am
    55   23   76 1
    56   24   25 2
    57   24   26 1
    58   26   27 1
    59   26   34 1
    60   26   77 1
    61   27   28 1
    62   27   78 1
    63   27   79 1
    64   28   33 1
    65   28   29 2
    66   29   30 1
    67   29   80 1
    68   30   31 1
    69   30   32 1
    70   32   33 2
    71   32   81 1
    72   34   35 am
    73   34   82 1
    74   35   36 2
    75   35   37 1
    76   37   38 1
    77   37   39 1
    78   37   45 1
    79   38   83 1
    80   38   84 1
    81   38   85 1
    82   39   44 ar
    83   39   40 ar
    84   40   41 ar
    85   40   86 1
    86   41   42 ar
    87   41   87 1
    88   42   43 ar
    89   42   88 1
    90   43   44 ar
    91   43   89 1
    92   44   90 1
    93   45   91 1
    94   46   92 1
@<TRIPOS>MOLECULE
CHEMBL59128__9
   93    95     0     0     0
SMALL
USER_CHARGES

@<TRIPOS>ATOM
      1 C1         -1.0895   -0.1922    0.6282 C.3       1 <0>        -0.1539
      2 C2         -0.7751   -1.6866    0.5344 C.3       1 <0>        -0.0936
      3 C3         -0.0314   -1.9703   -0.7722 C.3       1 <0>        -0.1486
      4 C4          0.1005   -2.0989    1.7195 C.3       1 <0>        -0.1266
      5 C5         -0.6891   -1.9322    3.0193 C.3       1 <0>         0.1138
      6 N1          0.1492   -2.3270    4.1540 N.am      1 <0>        -0.7279
      7 C6         -0.3402   -2.2625    5.4081 C.2       1 <0>         0.5487
      8 O1         -1.4778   -1.8766    5.5978 O.2       1 <0>        -0.5342
      9 C7          0.5016   -2.6589    6.5475 C.2       1 <0>        -0.1817
     10 C8          0.0186   -2.5953    7.7850 C.2       1 <0>        -0.0797
     11 C9          1.9112   -3.1371    6.3124 C.3       1 <0>        -0.1133
     12 C10         1.8955   -4.6332    5.9922 C.3       1 <0>         0.1006
     13 H1          1.2280   -4.8176    5.1505 H         1 <0>         0.1181
     14 C11         3.3097   -5.0924    5.6317 C.3       1 <0>         0.1125
     15 H2          3.6609   -4.5382    4.7613 H         1 <0>         0.1075
     16 C12         3.2940   -6.5884    5.3114 C.3       1 <0>        -0.1238
     17 C13         4.6805   -7.0217    4.8309 C.3       1 <0>        -0.0773
     18 C14         5.0010   -6.3275    3.5057 C.3       1 <0>        -0.1089
     19 C15         6.3874   -6.7608    3.0252 C.3       1 <0>        -0.1096
     20 C16         6.4066   -8.2774    2.8242 C.3       1 <0>        -0.1241
     21 C17         6.0861   -8.9716    4.1494 C.3       1 <0>        -0.1149
     22 C18         4.6996   -8.5383    4.6298 C.3       1 <0>        -0.1175
     23 N2          4.2069   -4.8446    6.7630 N.am      1 <0>        -0.7168
     24 C19         5.5281   -4.6817    6.5522 C.2       1 <0>         0.5086
     25 O2          5.9742   -4.7403    5.4259 O.2       1 <0>        -0.4898
     26 C20         6.4510   -4.4268    7.7159 C.3       1 <0>         0.1276
     27 C21         6.3747   -5.6008    8.6940 C.3       1 <0>        -0.0719
     28 C22         7.2020   -5.2918    9.9152 C.2       1 <0>         0.0442
     29 C23         8.5277   -5.4905   10.0439 C.2       1 <0>         0.0454
     30 N3          8.8699   -5.0758   11.3027 N.pl3     1 <0>        -0.4976
     31 H3          9.7578   -5.0932   11.6930 H         1 <0>         0.4651
     32 C24         7.7406   -4.6378   11.8998 C.cat     1 <0>         0.3127
     33 N4          6.7480   -4.7654   11.0622 N.pl3     1 <0>        -0.4671
     34 N5          7.8251   -4.2863    7.2278 N.am      1 <0>        -0.7026
     35 C25         8.7253   -3.5820    7.9420 C.2       1 <0>         0.5013
     36 O3          8.3978   -3.0645    8.9888 O.2       1 <0>        -0.5310
     37 C26        10.1388   -3.4375    7.4398 C.3       1 <0>         0.1675
     38 C27        10.2144   -2.2654    6.4594 C.3       1 <0>        -0.1413
     39 C28        11.0613   -3.1796    8.6032 C.ar      1 <0>        -0.1160
     40 C29        11.9993   -4.1283    8.9651 C.ar      1 <0>        -0.1161
     41 C30        12.8455   -3.8918   10.0322 C.ar      1 <0>        -0.1223
     42 C31        12.7540   -2.7063   10.7373 C.ar      1 <0>        -0.1100
     43 C32        11.8166   -1.7571   10.3749 C.ar      1 <0>        -0.1201
     44 C33        10.9733   -1.9919    9.3050 C.ar      1 <0>        -0.0782
     45 O4         10.5338   -4.6398    6.7762 O.3       1 <0>        -0.5316
     46 O5          1.4351   -5.3597    7.1333 O.3       1 <0>        -0.5374
     47 H4         -0.1599    0.3766    0.6084 H         1 <0>         0.0551
     48 H5         -1.7132    0.1015   -0.2160 H         1 <0>         0.0584
     49 H6         -1.6193    0.0099    1.5591 H         1 <0>         0.0575
     50 H7         -1.7047   -2.2554    0.5543 H         1 <0>         0.0744
     51 H8          0.8983   -1.4015   -0.7920 H         1 <0>         0.0549
     52 H9          0.1926   -3.0349   -0.8390 H         1 <0>         0.0550
     53 H10        -0.6551   -1.6765   -1.6165 H         1 <0>         0.0588
     54 H11         0.3978   -3.1414    1.6062 H         1 <0>         0.0692
     55 H12         0.9894   -1.4689    1.7510 H         1 <0>         0.0690
     56 H13        -0.9865   -0.8897    3.1326 H         1 <0>         0.0731
     57 H14        -1.5781   -2.5622    2.9878 H         1 <0>         0.0703
     58 H15         1.0565   -2.6348    4.0027 H         1 <0>         0.3962
     59 H16         0.6366   -2.8863    8.6215 H         1 <0>         0.1111
     60 H17        -0.9916   -2.2525    7.9534 H         1 <0>         0.1187
     61 H18         2.3453   -2.5909    5.4751 H         1 <0>         0.0836
     62 H19         2.5078   -2.9635    7.2080 H         1 <0>         0.0785
     63 H20         3.0284   -7.1491    6.2077 H         1 <0>         0.0725
     64 H21         2.5606   -6.7849    4.5293 H         1 <0>         0.0770
     65 H22         5.4262   -6.7446    5.5760 H         1 <0>         0.0688
     66 H23         4.2552   -6.6046    2.7607 H         1 <0>         0.0503
     67 H24         4.9873   -5.2470    3.6490 H         1 <0>         0.0755
     68 H25         6.6158   -6.2661    2.0811 H         1 <0>         0.0558
     69 H26         7.1332   -6.4836    3.7703 H         1 <0>         0.0606
     70 H27         5.6608   -8.5545    2.0791 H         1 <0>         0.0600
     71 H28         7.3943   -8.5860    2.4818 H         1 <0>         0.0587
     72 H29         6.0997  -10.0521    4.0061 H         1 <0>         0.0592
     73 H30         6.8318   -8.6945    4.8944 H         1 <0>         0.0548
     74 H31         4.4713   -9.0329    5.5739 H         1 <0>         0.0555
     75 H32         3.9538   -8.8155    3.8848 H         1 <0>         0.0616
     76 H33         3.8501   -4.7977    7.6637 H         1 <0>         0.3930
     77 H34         6.1505   -3.5105    8.2240 H         1 <0>         0.1202
     78 H35         5.3377   -5.7614    8.9888 H         1 <0>         0.1102
     79 H36         6.7591   -6.5002    8.2128 H         1 <0>         0.1224
     80 H37         9.1930   -5.8990    9.2976 H         1 <0>         0.2083
     81 H38         7.6711   -4.2434   12.9028 H         1 <0>         0.2637
     82 H39         8.0871   -4.7002    6.3905 H         1 <0>         0.4250
     83 H40         9.9131   -1.3483    6.9656 H         1 <0>         0.0809
     84 H41        11.2368   -2.1608    6.0962 H         1 <0>         0.0862
     85 H42         9.5472   -2.4519    5.6179 H         1 <0>         0.0770
     86 H43        12.0708   -5.0545    8.4142 H         1 <0>         0.1263
     87 H44        13.5779   -4.6333   10.3154 H         1 <0>         0.1278
     88 H45        13.4146   -2.5217   11.5715 H         1 <0>         0.1268
     89 H46        11.7448   -0.8311   10.9260 H         1 <0>         0.1264
     90 H47        10.2434   -1.2488    9.0196 H         1 <0>         0.1242
     91 H48        10.5099   -5.4258    7.3390 H         1 <0>         0.3753
     92 H49         1.9828   -5.2424    7.9215 H         1 <0>         0.3619
     93 H50         5.8269   -4.5199   11.2416 H         1 <0>         0.4617
@<TRIPOS>BOND
     1    1    2 1
     2    1   47 1
     3    1   48 1
     4    1   49 1
     5    2    3 1
     6    2    4 1
     7    2   50 1
     8    3   51 1
     9    3   52 1
    10    3   53 1
    11    4    5 1
    12    4   54 1
    13    4   55 1
    14    5    6 1
    15    5   56 1
    16    5   57 1
    17    6    7 am
    18    6   58 1
    19    7    8 2
    20    7    9 1
    21    9   10 2
    22    9   11 1
    23   10   59 1
    24   10   60 1
    25   11   12 1
    26   11   61 1
    27   11   62 1
    28   12   13 1
    29   12   14 1
    30   12   46 1
    31   14   15 1
    32   14   16 1
    33   14   23 1
    34   16   17 1
    35   16   63 1
    36   16   64 1
    37   17   22 1
    38   17   18 1
    39   17   65 1
    40   18   19 1
    41   18   66 1
    42   18   67 1
    43   19   20 1
    44   19   68 1
    45   19   69 1
    46   20   21 1
    47   20   70 1
    48   20   71 1
    49   21   22 1
    50   21   72 1
    51   21   73 1
    52   22   74 1
    53   22   75 1
    54   23   24 am
    55   23   76 1
    56   24   25 2
    57   24   26 1
    58   26   27 1
    59   26   34 1
    60   26   77 1
    61   27   28 1
    62   27   78 1
    63   27   79 1
    64   28   33 1
    65   28   29 2
    66   29   30 1
    67   29   80 1
    68   30   31 1
    69   30   32 1
    70   32   33 2
    71   32   81 1
    72   33   93 1
    73   34   35 am
    74   34   82 1
    75   35   36 2
    76   35   37 1
    77   37   38 1
    78   37   39 1
    79   37   45 1
    80   38   83 1
    81   38   84 1
    82   38   85 1
    83   39   44 ar
    84   39   40 ar
    85   40   41 ar
    86   40   86 1
    87   41   42 ar
    88   41   87 1
    89   42   43 ar
    90   42   88 1
    91   43   44 ar
    92   43   89 1
    93   44   90 1
    94   45   91 1
    95   46   92 1
@<TRIPOS>MOLECULE
CHEMBL59128__10
   92    94     0     0     0
SMALL
USER_CHARGES

@<TRIPOS>ATOM
      1 C1          1.1044   -0.1548    0.6333 C.3       1 <0>        -0.1535
      2 C2          0.9007   -1.6553    0.4140 C.3       1 <0>        -0.0931
      3 C3         -0.5957   -1.9738    0.4247 C.3       1 <0>        -0.1482
      4 C4          1.4985   -2.0592   -0.9353 C.3       1 <0>        -0.1277
      5 C5          3.0147   -1.8571   -0.9024 C.3       1 <0>         0.1152
      6 N1          3.5870   -2.2439   -2.1944 N.am      1 <0>        -0.7288
      7 C6          4.9159   -2.1493   -2.3982 C.2       1 <0>         0.5518
      8 O1          5.6399   -1.7428   -1.5096 O.2       1 <0>        -0.5388
      9 C7          5.4906   -2.5377   -3.6954 C.2       1 <0>        -0.1830
     10 C8          6.8019   -2.4443   -3.8965 C.2       1 <0>        -0.0782
     11 C9          4.5934   -3.0413   -4.7965 C.3       1 <0>        -0.1156
     12 C10         4.3588   -4.5425   -4.6167 C.3       1 <0>         0.1027
     13 H1          3.9682   -4.7320   -3.6169 H         1 <0>         0.1134
     14 C11         3.3503   -5.0296   -5.6590 C.3       1 <0>         0.1130
     15 H2          2.4083   -4.4966   -5.5299 H         1 <0>         0.1035
     16 C12         3.1157   -6.5307   -5.4792 C.3       1 <0>        -0.1220
     17 C13         2.0165   -6.9936   -6.4376 C.3       1 <0>        -0.0799
     18 C14         0.6929   -6.3284   -6.0551 C.3       1 <0>        -0.1060
     19 C15        -0.4062   -6.7912   -7.0135 C.3       1 <0>        -0.1103
     20 C16        -0.5546   -8.3113   -6.9234 C.3       1 <0>        -0.1215
     21 C17         0.7690   -8.9765   -7.3059 C.3       1 <0>        -0.1158
     22 C18         1.8682   -8.5137   -6.3475 C.3       1 <0>        -0.1159
     23 N2          3.8753   -4.7749   -7.0028 N.am      1 <0>        -0.7195
     24 C19         3.0284   -4.6358   -8.0420 C.2       1 <0>         0.5130
     25 O2          1.8317   -4.7215   -7.8647 O.2       1 <0>        -0.5069
     26 C20         3.5685   -4.3738   -9.4243 C.3       1 <0>         0.1321
     27 C21         4.4806   -5.5287   -9.8428 C.3       1 <0>        -0.0484
     28 C22         5.1170   -5.2102  -11.1712 C.2       1 <0>        -0.0181
     29 C23         6.2369   -4.4899  -11.3727 C.2       1 <0>        -0.0006
     30 N3          6.4657   -4.4394  -12.6934 N.2       1 <0>        -0.4849
     31 H3          3.8835   -6.1380  -12.5882 H         1 <0>         0.4081
     32 C24         5.5301   -5.1009  -13.3179 C.2       1 <0>         0.1992
     33 N4          4.6710   -5.6023  -12.4045 N.pl3     1 <0>        -0.5622
     34 N5          2.4555   -4.2630  -10.3705 N.am      1 <0>        -0.7076
     35 C25         2.6073   -3.5596  -11.5101 C.2       1 <0>         0.4889
     36 O3          3.6653   -3.0183  -11.7522 O.2       1 <0>        -0.4931
     37 C26         1.4625   -3.4456  -12.4834 C.3       1 <0>         0.1670
     38 C27         0.5477   -2.2938  -12.0622 C.3       1 <0>        -0.1365
     39 C28         2.0023   -3.1789  -13.8649 C.ar      1 <0>        -0.1078
     40 C29         1.8707   -4.1347  -14.8548 C.ar      1 <0>        -0.1128
     41 C30         2.3659   -3.8900  -16.1220 C.ar      1 <0>        -0.1217
     42 C31         2.9923   -2.6894  -16.3994 C.ar      1 <0>        -0.1107
     43 C32         3.1232   -1.7332  -15.4097 C.ar      1 <0>        -0.1170
     44 C33         2.6242   -1.9762  -14.1437 C.ar      1 <0>        -0.0740
     45 O4          0.7194   -4.6662  -12.4898 O.3       1 <0>        -0.5391
     46 O5          5.5938   -5.2412   -4.7859 O.3       1 <0>        -0.5418
     47 H4          2.1705    0.0721    0.6256 H         1 <0>         0.0579
     48 H5          0.6092    0.3994   -0.1640 H         1 <0>         0.0553
     49 H6          0.6785    0.1329    1.5945 H         1 <0>         0.0568
     50 H7          1.3959   -2.2095    1.2113 H         1 <0>         0.0736
     51 H8         -1.0909   -1.4196   -0.3726 H         1 <0>         0.0552
     52 H9         -0.7408   -3.0428    0.2685 H         1 <0>         0.0551
     53 H10        -1.0215   -1.6860    1.3860 H         1 <0>         0.0573
     54 H11         1.2759   -3.1080   -1.1319 H         1 <0>         0.0697
     55 H12         1.0666   -1.4423   -1.7233 H         1 <0>         0.0697
     56 H13         3.2372   -0.8083   -0.7059 H         1 <0>         0.0716
     57 H14         3.4465   -2.4740   -0.1144 H         1 <0>         0.0687
     58 H15         3.0095   -2.5681   -2.9031 H         1 <0>         0.3978
     59 H16         7.2238   -2.7294   -4.8489 H         1 <0>         0.1147
     60 H17         7.4449   -2.0833   -3.1074 H         1 <0>         0.1166
     61 H18         3.6387   -2.5169   -4.7557 H         1 <0>         0.0819
     62 H19         5.0663   -2.8605   -5.7618 H         1 <0>         0.0834
     63 H20         4.0374   -7.0710   -5.6953 H         1 <0>         0.0722
     64 H21         2.8099   -6.7302   -4.4522 H         1 <0>         0.0721
     65 H22         2.2822   -6.7143   -7.4572 H         1 <0>         0.0737
     66 H23         0.4272   -6.6077   -5.0355 H         1 <0>         0.0465
     67 H24         0.7986   -5.2454   -6.1193 H         1 <0>         0.0770
     68 H25        -1.3492   -6.3173   -6.7409 H         1 <0>         0.0535
     69 H26        -0.1406   -6.5119   -8.0330 H         1 <0>         0.0629
     70 H27        -0.8203   -8.5906   -5.9038 H         1 <0>         0.0576
     71 H28        -1.3377   -8.6411   -7.6062 H         1 <0>         0.0565
     72 H29         0.6633  -10.0595   -7.2417 H         1 <0>         0.0570
     73 H30         1.0347   -8.6972   -8.3255 H         1 <0>         0.0565
     74 H31         2.8111   -8.9876   -6.6201 H         1 <0>         0.0557
     75 H32         1.6025   -8.7930   -5.3279 H         1 <0>         0.0587
     76 H33         4.8324   -4.7063   -7.1446 H         1 <0>         0.3966
     77 H34         4.1373   -3.4440   -9.4219 H         1 <0>         0.1181
     78 H35         5.2581   -5.6682   -9.0917 H         1 <0>         0.0977
     79 H36         3.8928   -6.4423   -9.9313 H         1 <0>         0.0784
     80 H37         6.8443   -4.0331  -10.6055 H         1 <0>         0.1596
     81 H38         5.4569   -5.2291  -14.3878 H         1 <0>         0.1971
     82 H39         1.6094   -4.6959  -10.1768 H         1 <0>         0.4141
     83 H40         1.1145   -1.3628  -12.0573 H         1 <0>         0.0792
     84 H41        -0.2804   -2.2114  -12.7662 H         1 <0>         0.0800
     85 H42         0.1572   -2.4867  -11.0629 H         1 <0>         0.0729
     86 H43         1.3813   -5.0727  -14.6381 H         1 <0>         0.1207
     87 H44         2.2636   -4.6371  -16.8953 H         1 <0>         0.1229
     88 H45         3.3798   -2.4985  -17.3893 H         1 <0>         0.1227
     89 H46         3.6129   -0.7953  -15.6263 H         1 <0>         0.1234
     90 H47         2.7231   -1.2277  -13.3714 H         1 <0>         0.1215
     91 H48         1.2375   -5.4407  -12.7481 H         1 <0>         0.3755
     92 H49         5.9996   -5.1179   -5.6549 H         1 <0>         0.3679
@<TRIPOS>BOND
     1    1    2 1
     2    1   47 1
     3    1   48 1
     4    1   49 1
     5    2    3 1
     6    2    4 1
     7    2   50 1
     8    3   51 1
     9    3   52 1
    10    3   53 1
    11    4    5 1
    12    4   54 1
    13    4   55 1
    14    5    6 1
    15    5   56 1
    16    5   57 1
    17    6    7 am
    18    6   58 1
    19    7    8 2
    20    7    9 1
    21    9   10 2
    22    9   11 1
    23   10   59 1
    24   10   60 1
    25   11   12 1
    26   11   61 1
    27   11   62 1
    28   12   13 1
    29   12   14 1
    30   12   46 1
    31   14   15 1
    32   14   16 1
    33   14   23 1
    34   16   17 1
    35   16   63 1
    36   16   64 1
    37   17   22 1
    38   17   18 1
    39   17   65 1
    40   18   19 1
    41   18   66 1
    42   18   67 1
    43   19   20 1
    44   19   68 1
    45   19   69 1
    46   20   21 1
    47   20   70 1
    48   20   71 1
    49   21   22 1
    50   21   72 1
    51   21   73 1
    52   22   74 1
    53   22   75 1
    54   23   24 am
    55   23   76 1
    56   24   25 2
    57   24   26 1
    58   26   27 1
    59   26   34 1
    60   26   77 1
    61   27   78 1
    62   27   79 1
    63   27   28 1
    64   28   29 2
    65   28   33 1
    66   29   30 1
    67   29   80 1
    68   30   32 2
    69   31   33 1
    70   32   81 1
    71   32   33 1
    72   34   35 am
    73   34   82 1
    74   35   36 2
    75   35   37 1
    76   37   38 1
    77   37   39 1
    78   37   45 1
    79   38   83 1
    80   38   84 1
    81   38   85 1
    82   39   44 ar
    83   39   40 ar
    84   40   41 ar
    85   40   86 1
    86   41   42 ar
    87   41   87 1
    88   42   43 ar
    89   42   88 1
    90   43   44 ar
    91   43   89 1
    92   44   90 1
    93   45   91 1
    94   46   92 1
@<TRIPOS>MOLECULE
CHEMBL59128__11
   92    94     0     0     0
SMALL
USER_CHARGES

@<TRIPOS>ATOM
      1 C1          1.1104   -0.0715    0.6122 C.3       1 <0>        -0.1535
      2 C2          0.9040   -1.5730    0.4024 C.3       1 <0>        -0.0931
      3 C3         -0.5930   -1.8887    0.4152 C.3       1 <0>        -0.1483
      4 C4          1.5010   -1.9865   -0.9443 C.3       1 <0>        -0.1280
      5 C5          3.0176   -1.7869   -0.9127 C.3       1 <0>         0.1153
      6 N1          3.5892   -2.1828   -2.2021 N.am      1 <0>        -0.7285
      7 C6          4.9183   -2.0919   -2.4065 C.2       1 <0>         0.5519
      8 O1          5.6430   -1.6812   -1.5205 O.2       1 <0>        -0.5394
      9 C7          5.4922   -2.4895   -3.7013 C.2       1 <0>        -0.1813
     10 C8          6.8037   -2.3998   -3.9029 C.2       1 <0>        -0.0802
     11 C9          4.5941   -2.9985   -4.7992 C.3       1 <0>        -0.1157
     12 C10         4.3569   -4.4981   -4.6099 C.3       1 <0>         0.1030
     13 H1          3.9659   -4.6806   -3.6089 H         1 <0>         0.1128
     14 C11         3.3474   -4.9899   -5.6492 C.3       1 <0>         0.1131
     15 H2          2.4064   -4.4544   -5.5234 H         1 <0>         0.1029
     16 C12         3.1101   -6.4895   -5.4599 C.3       1 <0>        -0.1212
     17 C13         2.0102   -6.9564   -6.4154 C.3       1 <0>        -0.0807
     18 C14         0.6877   -6.2864   -6.0370 C.3       1 <0>        -0.1053
     19 C15        -0.4122   -6.7533   -6.9925 C.3       1 <0>        -0.1110
     20 C16        -0.5634   -8.2725   -6.8928 C.3       1 <0>        -0.1209
     21 C17         0.7591   -8.9425   -7.2712 C.3       1 <0>        -0.1165
     22 C18         1.8590   -8.4756   -6.3157 C.3       1 <0>        -0.1151
     23 N2          3.8729   -4.7446   -6.9945 N.am      1 <0>        -0.7218
     24 C19         3.0263   -4.6106   -8.0346 C.2       1 <0>         0.5119
     25 O2          1.8294   -4.6930   -7.8567 O.2       1 <0>        -0.5077
     26 C20         3.5668   -4.3583   -9.4185 C.3       1 <0>         0.1416
     27 C21         4.4769   -5.5174   -9.8297 C.3       1 <0>        -0.0381
     28 C22         5.1138   -5.2084  -11.1601 C.2       1 <0>         0.0016
     29 C23         6.4342   -5.2093  -11.4246 C.2       1 <0>        -0.0544
     30 N3          6.5738   -4.8778  -12.7453 N.pl3     1 <0>        -0.5713
     31 H3          7.4082   -4.7960  -13.2331 H         1 <0>         0.4168
     32 C24         5.3329   -4.6856  -13.2422 C.2       1 <0>         0.1939
     33 N4          4.4646   -4.8900  -12.2897 N.2       1 <0>        -0.4476
     34 N5          2.4540   -4.2515  -10.3654 N.am      1 <0>        -0.7056
     35 C25         2.6071   -3.5555  -11.5093 C.2       1 <0>         0.5255
     36 O3          3.6661   -3.0177  -11.7549 O.2       1 <0>        -0.5046
     37 C26         1.4625   -3.4456  -12.4834 C.3       1 <0>         0.1711
     38 C27         0.5444   -2.2958  -12.0638 C.3       1 <0>        -0.1381
     39 C28         2.0023   -3.1789  -13.8649 C.ar      1 <0>        -0.0867
     40 C29         1.8707   -4.1347  -14.8548 C.ar      1 <0>        -0.1016
     41 C30         2.3659   -3.8900  -16.1220 C.ar      1 <0>        -0.1248
     42 C31         2.9923   -2.6894  -16.3994 C.ar      1 <0>        -0.1199
     43 C32         3.1232   -1.7332  -15.4097 C.ar      1 <0>        -0.1251
     44 C33         2.6242   -1.9762  -14.1437 C.ar      1 <0>        -0.0794
     45 O4          0.7227   -4.6682  -12.4889 O.3       1 <0>        -0.5449
     46 O5          5.5906   -5.2001   -4.7747 O.3       1 <0>        -0.5424
     47 H4          2.1769    0.1534    0.6031 H         1 <0>         0.0577
     48 H5          0.6162    0.4785   -0.1886 H         1 <0>         0.0553
     49 H6          0.6851    0.2231    1.5716 H         1 <0>         0.0567
     50 H7          1.3982   -2.1230    1.2032 H         1 <0>         0.0735
     51 H8         -1.0872   -1.3386   -0.3856 H         1 <0>         0.0553
     52 H9         -0.7400   -2.9584    0.2657 H         1 <0>         0.0552
     53 H10        -1.0183   -1.5941    1.3746 H         1 <0>         0.0571
     54 H11         1.2766   -3.0361   -1.1342 H         1 <0>         0.0701
     55 H12         1.0703   -1.3737   -1.7362 H         1 <0>         0.0699
     56 H13         3.2420   -0.7373   -0.7227 H         1 <0>         0.0714
     57 H14         3.4483   -2.3996   -0.1208 H         1 <0>         0.0685
     58 H15         3.0111   -2.5105   -2.9088 H         1 <0>         0.3983
     59 H16         7.2251   -2.6917   -4.8535 H         1 <0>         0.1138
     60 H17         7.4474   -2.0350   -3.1161 H         1 <0>         0.1163
     61 H18         3.6404   -2.4721   -4.7617 H         1 <0>         0.0822
     62 H19         5.0674   -2.8247   -5.7656 H         1 <0>         0.0832
     63 H20         4.0309   -7.0327   -5.6726 H         1 <0>         0.0713
     64 H21         2.8040   -6.6819   -4.4316 H         1 <0>         0.0706
     65 H22         2.2763   -6.6840   -7.4367 H         1 <0>         0.0760
     66 H23         0.4216   -6.5588   -5.0157 H         1 <0>         0.0451
     67 H24         0.7954   -5.2040   -6.1080 H         1 <0>         0.0769
     68 H25        -1.3544   -6.2759   -6.7230 H         1 <0>         0.0529
     69 H26        -0.1461   -6.4809   -8.0138 H         1 <0>         0.0648
     70 H27        -0.8295   -8.5449   -5.8715 H         1 <0>         0.0565
     71 H28        -1.3470   -8.6051   -7.5735 H         1 <0>         0.0564
     72 H29         0.6514  -10.0248   -7.2001 H         1 <0>         0.0563
     73 H30         1.0252   -8.6701   -8.2925 H         1 <0>         0.0586
     74 H31         2.8012   -8.9529   -6.5852 H         1 <0>         0.0554
     75 H32         1.5929   -8.7480   -5.2944 H         1 <0>         0.0575
     76 H33         4.8301   -4.6787   -7.1367 H         1 <0>         0.3949
     77 H34         4.1373   -3.4295   -9.4220 H         1 <0>         0.1083
     78 H35         5.2541   -5.6536   -9.0777 H         1 <0>         0.0813
     79 H36         3.8874   -6.4305   -9.9124 H         1 <0>         0.0807
     80 H37         7.2301   -5.4291  -10.7284 H         1 <0>         0.1681
     81 H38         5.0979   -4.4122  -14.2602 H         1 <0>         0.1935
     82 H39         1.6071   -4.6816  -10.1690 H         1 <0>         0.4102
     83 H40         1.1087   -1.3633  -12.0596 H         1 <0>         0.0756
     84 H41        -0.2835   -2.2163  -12.7684 H         1 <0>         0.0762
     85 H42         0.1539   -2.4887  -11.0646 H         1 <0>         0.0711
     86 H43         1.3813   -5.0727  -14.6381 H         1 <0>         0.1216
     87 H44         2.2636   -4.6371  -16.8953 H         1 <0>         0.1199
     88 H45         3.3798   -2.4985  -17.3893 H         1 <0>         0.1185
     89 H46         3.6129   -0.7953  -15.6263 H         1 <0>         0.1189
     90 H47         2.7231   -1.2277  -13.3714 H         1 <0>         0.1192
     91 H48         1.2430   -5.4416  -12.7462 H         1 <0>         0.3833
     92 H49         5.9966   -5.0830   -5.6445 H         1 <0>         0.3674
@<TRIPOS>BOND
     1    1    2 1
     2    1   47 1
     3    1   48 1
     4    1   49 1
     5    2    3 1
     6    2    4 1
     7    2   50 1
     8    3   51 1
     9    3   52 1
    10    3   53 1
    11    4    5 1
    12    4   54 1
    13    4   55 1
    14    5    6 1
    15    5   56 1
    16    5   57 1
    17    6    7 am
    18    6   58 1
    19    7    8 2
    20    7    9 1
    21    9   10 2
    22    9   11 1
    23   10   59 1
    24   10   60 1
    25   11   12 1
    26   11   61 1
    27   11   62 1
    28   12   13 1
    29   12   14 1
    30   12   46 1
    31   14   15 1
    32   14   16 1
    33   14   23 1
    34   16   17 1
    35   16   63 1
    36   16   64 1
    37   17   22 1
    38   17   18 1
    39   17   65 1
    40   18   19 1
    41   18   66 1
    42   18   67 1
    43   19   20 1
    44   19   68 1
    45   19   69 1
    46   20   21 1
    47   20   70 1
    48   20   71 1
    49   21   22 1
    50   21   72 1
    51   21   73 1
    52   22   74 1
    53   22   75 1
    54   23   24 am
    55   23   76 1
    56   24   25 2
    57   24   26 1
    58   26   27 1
    59   26   34 1
    60   26   77 1
    61   27   28 1
    62   27   78 1
    63   27   79 1
    64   28   33 1
    65   28   29 2
    66   29   30 1
    67   29   80 1
    68   30   31 1
    69   30   32 1
    70   32   33 2
    71   32   81 1
    72   34   35 am
    73   34   82 1
    74   35   36 2
    75   35   37 1
    76   37   38 1
    77   37   39 1
    78   37   45 1
    79   38   83 1
    80   38   84 1
    81   38   85 1
    82   39   44 ar
    83   39   40 ar
    84   40   41 ar
    85   40   86 1
    86   41   42 ar
    87   41   87 1
    88   42   43 ar
    89   42   88 1
    90   43   44 ar
    91   43   89 1
    92   44   90 1
    93   45   91 1
    94   46   92 1
@<TRIPOS>MOLECULE
CHEMBL291591
   88    90     0     0     0
SMALL
USER_CHARGES

@<TRIPOS>ATOM
      1 C1          0.0894    1.8901   -0.9472 C.3       1 <0>        -0.1346
      2 C2          0.1631    0.3621   -0.9761 C.3       1 <0>        -0.1093
      3 C3          1.0339   -0.1284    0.1824 C.3       1 <0>        -0.1497
      4 C4         -1.2242   -0.2104   -0.8391 C.2       1 <0>         0.5212
      5 O1         -2.1779    0.5307   -0.7293 O.2       1 <0>        -0.4992
      6 N1         -1.4050   -1.5460   -0.8387 N.am      1 <0>        -0.7242
      7 C5         -2.7536   -2.1026   -0.7056 C.3       1 <0>         0.1431
      8 H1         -2.7011   -3.1911   -0.7261 H         1 <0>         0.1100
      9 C6         -3.3650   -1.6464    0.6207 C.3       1 <0>        -0.0928
     10 C7         -2.5774   -2.2317    1.7645 C.ar      1 <0>        -0.0869
     11 C8         -2.9276   -3.4630    2.2862 C.ar      1 <0>        -0.1170
     12 C9         -2.2052   -3.9998    3.3354 C.ar      1 <0>        -0.1155
     13 C10        -1.1324   -3.3056    3.8626 C.ar      1 <0>        -0.1154
     14 C11        -0.7817   -2.0747    3.3403 C.ar      1 <0>        -0.1170
     15 C12        -1.5014   -1.5398    2.2883 C.ar      1 <0>        -0.1066
     16 C13        -3.6113   -1.6194   -1.8466 C.2       1 <0>         0.5033
     17 O2         -3.2899   -0.6301   -2.4703 O.2       1 <0>        -0.5062
     18 N2         -4.7356   -2.2867   -2.1741 N.am      1 <0>        -0.7172
     19 C14        -5.5694   -1.8170   -3.2833 C.3       1 <0>         0.1303
     20 H2         -5.5501   -0.7277   -3.3164 H         1 <0>         0.1262
     21 C15        -5.0286   -2.3769   -4.6005 C.3       1 <0>        -0.0691
     22 C16        -3.6581   -1.8080   -4.8632 C.2       1 <0>         0.0431
     23 C17        -3.3913   -0.6265   -5.4519 C.2       1 <0>         0.0548
     24 N3         -2.0287   -0.5021   -5.4906 N.pl3     1 <0>        -0.4989
     25 H3         -1.5290    0.2443   -5.8567 H         1 <0>         0.4656
     26 C18        -1.5099   -1.6127   -4.9238 C.cat     1 <0>         0.3060
     27 N4         -2.4904   -2.3868   -4.5464 N.pl3     1 <0>        -0.4708
     28 C19        -6.9864   -2.2884   -3.0812 C.2       1 <0>         0.5166
     29 O3         -7.2717   -2.9514   -2.1065 O.2       1 <0>        -0.5067
     30 N5         -7.9366   -1.9732   -3.9835 N.am      1 <0>        -0.7191
     31 C20        -9.2873   -2.5240   -3.8476 C.3       1 <0>         0.1196
     32 H4         -9.2325   -3.5120   -3.3906 H         1 <0>         0.1149
     33 C21       -10.1286   -1.5998   -2.9650 C.3       1 <0>        -0.1230
     34 C22       -11.5035   -2.2293   -2.7322 C.3       1 <0>        -0.0832
     35 C23       -11.3459   -3.5077   -1.9065 C.3       1 <0>        -0.1154
     36 C24       -12.7208   -4.1373   -1.6737 C.3       1 <0>        -0.1207
     37 C25       -13.6129   -3.1495   -0.9191 C.3       1 <0>        -0.1224
     38 C26       -13.7705   -1.8711   -1.7448 C.3       1 <0>        -0.1207
     39 C27       -12.3956   -1.2416   -1.9776 C.3       1 <0>        -0.1128
     40 C28        -9.9336   -2.6366   -5.2298 C.3       1 <0>         0.0662
     41 H5        -10.9386   -3.0465   -5.1287 H         1 <0>         0.1234
     42 C29        -9.0923   -3.5609   -6.1124 C.3       1 <0>         0.0817
     43 H6         -8.0874   -3.1510   -6.2135 H         1 <0>         0.1115
     44 C30        -9.7386   -3.6735   -7.4946 C.3       1 <0>         0.0423
     45 N6         -8.9331   -4.5584   -8.3397 N.2       1 <0>        -0.4027
     46 N7         -9.3867   -5.4940   -8.7667 N.1       1 <0>         0.2970
     47 N8         -9.8307   -6.4096   -9.1845 N.1       1 <0>        -0.1596
     48 O4         -9.0205   -4.8562   -5.5132 O.3       1 <0>        -0.5450
     49 O5        -10.0055   -1.3413   -5.8290 O.3       1 <0>        -0.5364
     50 H7          1.0928    2.3042   -1.0463 H         1 <0>         0.0638
     51 H8         -0.5310    2.2395   -1.7725 H         1 <0>         0.0594
     52 H9         -0.3462    2.2150   -0.0024 H         1 <0>         0.0641
     53 H10         0.5986    0.0371   -1.9209 H         1 <0>         0.0885
     54 H11         1.0864   -1.2170    0.1619 H         1 <0>         0.0597
     55 H12         2.0373    0.2857    0.0834 H         1 <0>         0.0717
     56 H13         0.5983    0.1966    1.1273 H         1 <0>         0.0639
     57 H14        -0.6422   -2.1387   -0.9265 H         1 <0>         0.4039
     58 H15        -3.3361   -0.5583    0.6789 H         1 <0>         0.1030
     59 H16        -4.3990   -1.9861    0.6801 H         1 <0>         0.0850
     60 H17        -3.7658   -4.0054    1.8743 H         1 <0>         0.1211
     61 H18        -2.4792   -4.9615    3.7434 H         1 <0>         0.1244
     62 H19        -0.5685   -3.7247    4.6828 H         1 <0>         0.1241
     63 H20         0.0563   -1.5322    3.7525 H         1 <0>         0.1226
     64 H21        -1.2251   -0.5798    1.8778 H         1 <0>         0.1155
     65 H22        -4.9927   -3.0779   -1.6753 H         1 <0>         0.4164
     66 H23        -4.9646   -3.4631   -4.5345 H         1 <0>         0.1075
     67 H24        -5.6987   -2.1013   -5.4148 H         1 <0>         0.1225
     68 H25        -4.1136    0.0858   -5.8225 H         1 <0>         0.2217
     69 H26        -0.4580   -1.8233   -4.7996 H         1 <0>         0.2592
     70 H27        -7.7262   -1.3816   -4.7229 H         1 <0>         0.3946
     71 H28        -9.6277   -1.4567   -2.0076 H         1 <0>         0.0711
     72 H29       -10.2494   -0.6360   -3.4596 H         1 <0>         0.0750
     73 H30       -11.9598   -2.4708   -3.6922 H         1 <0>         0.0711
     74 H31       -10.7104   -4.2114   -2.4441 H         1 <0>         0.0594
     75 H32       -10.8896   -3.2662   -0.9465 H         1 <0>         0.0641
     76 H33       -13.1771   -4.3787   -2.6337 H         1 <0>         0.0599
     77 H34       -12.6085   -5.0480   -1.0855 H         1 <0>         0.0623
     78 H35       -14.5924   -3.5980   -0.7533 H         1 <0>         0.0624
     79 H36       -13.1566   -2.9080    0.0409 H         1 <0>         0.0615
     80 H37       -14.2268   -2.1126   -2.7048 H         1 <0>         0.0613
     81 H38       -14.4060   -1.1674   -1.2073 H         1 <0>         0.0631
     82 H39       -11.9393   -1.0001   -1.0176 H         1 <0>         0.0616
     83 H40       -12.5079   -0.3308   -2.5659 H         1 <0>         0.0625
     84 H41       -10.7436   -4.0833   -7.3935 H         1 <0>         0.0683
     85 H42        -9.7934   -2.6854   -7.9517 H         1 <0>         0.1182
     86 H43        -9.8803   -5.2819   -5.3924 H         1 <0>         0.3787
     87 H44        -9.1457   -0.9156   -5.9499 H         1 <0>         0.3706
     88 H45        -2.3904   -3.2462   -4.1078 H         1 <0>         0.4578
@<TRIPOS>BOND
     1    1    2 1
     2    1   50 1
     3    1   51 1
     4    1   52 1
     5    2    3 1
     6    2    4 1
     7    2   53 1
     8    3   54 1
     9    3   55 1
    10    3   56 1
    11    4    5 2
    12    4    6 am
    13    6    7 1
    14    6   57 1
    15    7    8 1
    16    7    9 1
    17    7   16 1
    18    9   10 1
    19    9   58 1
    20    9   59 1
    21   10   15 ar
    22   10   11 ar
    23   11   12 ar
    24   11   60 1
    25   12   13 ar
    26   12   61 1
    27   13   14 ar
    28   13   62 1
    29   14   15 ar
    30   14   63 1
    31   15   64 1
    32   16   17 2
    33   16   18 am
    34   18   19 1
    35   18   65 1
    36   19   20 1
    37   19   21 1
    38   19   28 1
    39   21   22 1
    40   21   66 1
    41   21   67 1
    42   22   27 1
    43   22   23 2
    44   23   24 1
    45   23   68 1
    46   24   25 1
    47   24   26 1
    48   26   27 2
    49   26   69 1
    50   27   88 1
    51   28   29 2
    52   28   30 am
    53   30   31 1
    54   30   70 1
    55   31   32 1
    56   31   33 1
    57   31   40 1
    58   33   34 1
    59   33   71 1
    60   33   72 1
    61   34   39 1
    62   34   35 1
    63   34   73 1
    64   35   36 1
    65   35   74 1
    66   35   75 1
    67   36   37 1
    68   36   76 1
    69   36   77 1
    70   37   38 1
    71   37   78 1
    72   37   79 1
    73   38   39 1
    74   38   80 1
    75   38   81 1
    76   39   82 1
    77   39   83 1
    78   40   41 1
    79   40   42 1
    80   40   49 1
    81   42   43 1
    82   42   44 1
    83   42   48 1
    84   44   45 1
    85   44   84 1
    86   44   85 1
    87   45   46 2
    88   46   47 2
    89   48   86 1
    90   49   87 1
@<TRIPOS>MOLECULE
CHEMBL291591__1
   87    89     0     0     0
SMALL
USER_CHARGES

@<TRIPOS>ATOM
      1 C1          0.0894    1.8901   -0.9472 C.3       1 <0>        -0.1292
      2 C2          0.1631    0.3621   -0.9761 C.3       1 <0>        -0.1135
      3 C3          1.0339   -0.1284    0.1824 C.3       1 <0>        -0.1446
      4 C4         -1.2242   -0.2104   -0.8391 C.2       1 <0>         0.5326
      5 O1         -2.1779    0.5307   -0.7293 O.2       1 <0>        -0.5137
      6 N1         -1.4050   -1.5460   -0.8387 N.am      1 <0>        -0.7141
      7 C5         -2.7536   -2.1026   -0.7056 C.3       1 <0>         0.1493
      8 H1         -2.7011   -3.1911   -0.7261 H         1 <0>         0.1043
      9 C6         -3.3650   -1.6464    0.6207 C.3       1 <0>        -0.0947
     10 C7         -2.5774   -2.2317    1.7645 C.ar      1 <0>        -0.0772
     11 C8         -2.9276   -3.4630    2.2862 C.ar      1 <0>        -0.1176
     12 C9         -2.2052   -3.9998    3.3354 C.ar      1 <0>        -0.1182
     13 C10        -1.1324   -3.3056    3.8626 C.ar      1 <0>        -0.1219
     14 C11        -0.7817   -2.0747    3.3403 C.ar      1 <0>        -0.1186
     15 C12        -1.5014   -1.5398    2.2883 C.ar      1 <0>        -0.1057
     16 C13        -3.6113   -1.6194   -1.8466 C.2       1 <0>         0.5063
     17 O2         -3.2899   -0.6301   -2.4703 O.2       1 <0>        -0.4800
     18 N2         -4.7356   -2.2867   -2.1741 N.am      1 <0>        -0.7183
     19 C14        -5.5694   -1.8170   -3.2833 C.3       1 <0>         0.1390
     20 H2         -5.5501   -0.7277   -3.3164 H         1 <0>         0.1115
     21 C15        -5.0286   -2.3769   -4.6005 C.3       1 <0>        -0.0478
     22 C16        -3.6581   -1.8080   -4.8632 C.2       1 <0>        -0.0154
     23 C17        -2.4888   -2.2800   -4.3905 C.2       1 <0>        -0.0002
     24 N3         -1.5060   -1.4942   -4.8549 N.2       1 <0>        -0.4839
     25 H3         -3.9966   -0.1601   -6.1122 H         1 <0>         0.4138
     26 C18        -2.0218   -0.5531   -5.5973 C.2       1 <0>         0.1913
     27 N4         -3.3620   -0.7155   -5.6329 N.pl3     1 <0>        -0.5595
     28 C19        -6.9864   -2.2884   -3.0812 C.2       1 <0>         0.5198
     29 O3         -7.2717   -2.9514   -2.1065 O.2       1 <0>        -0.5170
     30 N5         -7.9366   -1.9732   -3.9835 N.am      1 <0>        -0.7236
     31 C20        -9.2873   -2.5240   -3.8476 C.3       1 <0>         0.1203
     32 H4         -9.2325   -3.5120   -3.3906 H         1 <0>         0.1126
     33 C21       -10.1286   -1.5998   -2.9650 C.3       1 <0>        -0.1229
     34 C22       -11.5035   -2.2293   -2.7322 C.3       1 <0>        -0.0824
     35 C23       -11.3459   -3.5077   -1.9065 C.3       1 <0>        -0.1166
     36 C24       -12.7208   -4.1373   -1.6737 C.3       1 <0>        -0.1198
     37 C25       -13.6129   -3.1495   -0.9191 C.3       1 <0>        -0.1215
     38 C26       -13.7705   -1.8711   -1.7448 C.3       1 <0>        -0.1196
     39 C27       -12.3956   -1.2416   -1.9776 C.3       1 <0>        -0.1131
     40 C28        -9.9336   -2.6366   -5.2298 C.3       1 <0>         0.0682
     41 H5        -10.9386   -3.0465   -5.1287 H         1 <0>         0.1203
     42 C29        -9.0923   -3.5609   -6.1124 C.3       1 <0>         0.0788
     43 H6         -8.0874   -3.1510   -6.2135 H         1 <0>         0.1153
     44 C30        -9.7386   -3.6735   -7.4946 C.3       1 <0>         0.0451
     45 N6         -8.9331   -4.5584   -8.3397 N.2       1 <0>        -0.3967
     46 N7         -9.3867   -5.4940   -8.7667 N.1       1 <0>         0.2989
     47 N8         -9.8307   -6.4096   -9.1845 N.1       1 <0>        -0.1710
     48 O4         -9.0205   -4.8562   -5.5132 O.3       1 <0>        -0.5408
     49 O5        -10.0055   -1.3413   -5.8290 O.3       1 <0>        -0.5406
     50 H7          1.0928    2.3042   -1.0463 H         1 <0>         0.0582
     51 H8         -0.5310    2.2395   -1.7725 H         1 <0>         0.0605
     52 H9         -0.3462    2.2150   -0.0024 H         1 <0>         0.0585
     53 H10         0.5986    0.0371   -1.9209 H         1 <0>         0.0967
     54 H11         1.0864   -1.2170    0.1619 H         1 <0>         0.0589
     55 H12         2.0373    0.2857    0.0834 H         1 <0>         0.0664
     56 H13         0.5983    0.1966    1.1273 H         1 <0>         0.0587
     57 H14        -0.6422   -2.1387   -0.9265 H         1 <0>         0.4034
     58 H15        -3.3361   -0.5583    0.6789 H         1 <0>         0.1017
     59 H16        -4.3990   -1.9861    0.6801 H         1 <0>         0.0824
     60 H17        -3.7658   -4.0054    1.8743 H         1 <0>         0.1213
     61 H18        -2.4792   -4.9615    3.7434 H         1 <0>         0.1211
     62 H19        -0.5685   -3.7247    4.6828 H         1 <0>         0.1201
     63 H20         0.0563   -1.5322    3.7525 H         1 <0>         0.1201
     64 H21        -1.2251   -0.5798    1.8778 H         1 <0>         0.1174
     65 H22        -4.9927   -3.0779   -1.6753 H         1 <0>         0.4073
     66 H23        -4.9646   -3.4631   -4.5345 H         1 <0>         0.0959
     67 H24        -5.6987   -2.1013   -5.4148 H         1 <0>         0.0789
     68 H25        -2.3642   -3.1406   -3.7499 H         1 <0>         0.1511
     69 H26        -1.4684    0.2247   -6.1023 H         1 <0>         0.2002
     70 H27        -7.7262   -1.3816   -4.7229 H         1 <0>         0.3937
     71 H28        -9.6277   -1.4567   -2.0076 H         1 <0>         0.0715
     72 H29       -10.2494   -0.6360   -3.4596 H         1 <0>         0.0733
     73 H30       -11.9598   -2.4708   -3.6922 H         1 <0>         0.0698
     74 H31       -10.7104   -4.2114   -2.4441 H         1 <0>         0.0614
     75 H32       -10.8896   -3.2662   -0.9465 H         1 <0>         0.0647
     76 H33       -13.1771   -4.3787   -2.6337 H         1 <0>         0.0590
     77 H34       -12.6085   -5.0480   -1.0855 H         1 <0>         0.0615
     78 H35       -14.5924   -3.5980   -0.7533 H         1 <0>         0.0602
     79 H36       -13.1566   -2.9080    0.0409 H         1 <0>         0.0614
     80 H37       -14.2268   -2.1126   -2.7048 H         1 <0>         0.0603
     81 H38       -14.4060   -1.1674   -1.2073 H         1 <0>         0.0612
     82 H39       -11.9393   -1.0001   -1.0176 H         1 <0>         0.0617
     83 H40       -12.5079   -0.3308   -2.5659 H         1 <0>         0.0618
     84 H41       -10.7436   -4.0833   -7.3935 H         1 <0>         0.0668
     85 H42        -9.7934   -2.6854   -7.9517 H         1 <0>         0.1178
     86 H43        -9.8803   -5.2819   -5.3924 H         1 <0>         0.3742
     87 H44        -9.1457   -0.9156   -5.9499 H         1 <0>         0.3733
@<TRIPOS>BOND
     1    1    2 1
     2    1   50 1
     3    1   51 1
     4    1   52 1
     5    2    3 1
     6    2    4 1
     7    2   53 1
     8    3   54 1
     9    3   55 1
    10    3   56 1
    11    4    5 2
    12    4    6 am
    13    6    7 1
    14    6   57 1
    15    7    8 1
    16    7    9 1
    17    7   16 1
    18    9   10 1
    19    9   58 1
    20    9   59 1
    21   10   15 ar
    22   10   11 ar
    23   11   12 ar
    24   11   60 1
    25   12   13 ar
    26   12   61 1
    27   13   14 ar
    28   13   62 1
    29   14   15 ar
    30   14   63 1
    31   15   64 1
    32   16   17 2
    33   16   18 am
    34   18   19 1
    35   18   65 1
    36   19   20 1
    37   19   21 1
    38   19   28 1
    39   21   66 1
    40   21   67 1
    41   21   22 1
    42   22   23 2
    43   22   27 1
    44   23   24 1
    45   23   68 1
    46   24   26 2
    47   25   27 1
    48   26   69 1
    49   26   27 1
    50   28   29 2
    51   28   30 am
    52   30   31 1
    53   30   70 1
    54   31   32 1
    55   31   33 1
    56   31   40 1
    57   33   34 1
    58   33   71 1
    59   33   72 1
    60   34   39 1
    61   34   35 1
    62   34   73 1
    63   35   36 1
    64   35   74 1
    65   35   75 1
    66   36   37 1
    67   36   76 1
    68   36   77 1
    69   37   38 1
    70   37   78 1
    71   37   79 1
    72   38   39 1
    73   38   80 1
    74   38   81 1
    75   39   82 1
    76   39   83 1
    77   40   41 1
    78   40   42 1
    79   40   49 1
    80   42   43 1
    81   42   44 1
    82   42   48 1
    83   44   45 1
    84   44   84 1
    85   44   85 1
    86   45   46 2
    87   46   47 2
    88   48   86 1
    89   49   87 1
@<TRIPOS>MOLECULE
CHEMBL291591__2
   87    89     0     0     0
SMALL
USER_CHARGES

@<TRIPOS>ATOM
      1 C1          0.0894    1.8901   -0.9472 C.3       1 <0>        -0.1313
      2 C2          0.1631    0.3621   -0.9761 C.3       1 <0>        -0.1117
      3 C3          1.0339   -0.1284    0.1824 C.3       1 <0>        -0.1455
      4 C4         -1.2242   -0.2104   -0.8391 C.2       1 <0>         0.5255
      5 O1         -2.1779    0.5307   -0.7293 O.2       1 <0>        -0.5031
      6 N1         -1.4050   -1.5460   -0.8387 N.am      1 <0>        -0.7182
      7 C5         -2.7536   -2.1026   -0.7056 C.3       1 <0>         0.1483
      8 H1         -2.7011   -3.1911   -0.7261 H         1 <0>         0.1012
      9 C6         -3.3650   -1.6464    0.6207 C.3       1 <0>        -0.0945
     10 C7         -2.5774   -2.2317    1.7645 C.ar      1 <0>        -0.0766
     11 C8         -2.9276   -3.4630    2.2862 C.ar      1 <0>        -0.1178
     12 C9         -2.2052   -3.9998    3.3354 C.ar      1 <0>        -0.1180
     13 C10        -1.1324   -3.3056    3.8626 C.ar      1 <0>        -0.1226
     14 C11        -0.7817   -2.0747    3.3403 C.ar      1 <0>        -0.1191
     15 C12        -1.5014   -1.5398    2.2883 C.ar      1 <0>        -0.1067
     16 C13        -3.6113   -1.6194   -1.8466 C.2       1 <0>         0.4965
     17 O2         -3.2899   -0.6301   -2.4703 O.2       1 <0>        -0.4668
     18 N2         -4.7356   -2.2867   -2.1741 N.am      1 <0>        -0.7170
     19 C14        -5.5694   -1.8170   -3.2833 C.3       1 <0>         0.1416
     20 H2         -5.5501   -0.7277   -3.3164 H         1 <0>         0.1217
     21 C15        -5.0286   -2.3769   -4.6005 C.3       1 <0>        -0.0363
     22 C16        -3.6581   -1.8080   -4.8632 C.2       1 <0>         0.0115
     23 C17        -2.5380   -2.5180   -5.0972 C.2       1 <0>        -0.0593
     24 N3         -1.5276   -1.6136   -5.2838 N.pl3     1 <0>        -0.5716
     25 H3         -0.5985   -1.8193   -5.4718 H         1 <0>         0.4150
     26 C18        -2.0658   -0.3816   -5.1572 C.2       1 <0>         0.1952
     27 N4         -3.3413   -0.5055   -4.9107 N.2       1 <0>        -0.4486
     28 C19        -6.9864   -2.2884   -3.0812 C.2       1 <0>         0.5201
     29 O3         -7.2717   -2.9514   -2.1065 O.2       1 <0>        -0.5248
     30 N5         -7.9366   -1.9732   -3.9835 N.am      1 <0>        -0.7232
     31 C20        -9.2873   -2.5240   -3.8476 C.3       1 <0>         0.1207
     32 H4         -9.2325   -3.5120   -3.3906 H         1 <0>         0.1110
     33 C21       -10.1286   -1.5998   -2.9650 C.3       1 <0>        -0.1231
     34 C22       -11.5035   -2.2293   -2.7322 C.3       1 <0>        -0.0822
     35 C23       -11.3459   -3.5077   -1.9065 C.3       1 <0>        -0.1164
     36 C24       -12.7208   -4.1373   -1.6737 C.3       1 <0>        -0.1197
     37 C25       -13.6129   -3.1495   -0.9191 C.3       1 <0>        -0.1213
     38 C26       -13.7705   -1.8711   -1.7448 C.3       1 <0>        -0.1195
     39 C27       -12.3956   -1.2416   -1.9776 C.3       1 <0>        -0.1132
     40 C28        -9.9336   -2.6366   -5.2298 C.3       1 <0>         0.0688
     41 H5        -10.9386   -3.0465   -5.1287 H         1 <0>         0.1188
     42 C29        -9.0923   -3.5609   -6.1124 C.3       1 <0>         0.0781
     43 H6         -8.0874   -3.1510   -6.2135 H         1 <0>         0.1176
     44 C30        -9.7386   -3.6735   -7.4946 C.3       1 <0>         0.0454
     45 N6         -8.9331   -4.5584   -8.3397 N.2       1 <0>        -0.3949
     46 N7         -9.3867   -5.4940   -8.7667 N.1       1 <0>         0.2990
     47 N8         -9.8307   -6.4096   -9.1845 N.1       1 <0>        -0.1748
     48 O4         -9.0205   -4.8562   -5.5132 O.3       1 <0>        -0.5412
     49 O5        -10.0055   -1.3413   -5.8290 O.3       1 <0>        -0.5418
     50 H7          1.0928    2.3042   -1.0463 H         1 <0>         0.0583
     51 H8         -0.5310    2.2395   -1.7725 H         1 <0>         0.0633
     52 H9         -0.3462    2.2150   -0.0024 H         1 <0>         0.0606
     53 H10         0.5986    0.0371   -1.9209 H         1 <0>         0.0895
     54 H11         1.0864   -1.2170    0.1619 H         1 <0>         0.0578
     55 H12         2.0373    0.2857    0.0834 H         1 <0>         0.0666
     56 H13         0.5983    0.1966    1.1273 H         1 <0>         0.0608
     57 H14        -0.6422   -2.1387   -0.9265 H         1 <0>         0.3998
     58 H15        -3.3361   -0.5583    0.6789 H         1 <0>         0.1018
     59 H16        -4.3990   -1.9861    0.6801 H         1 <0>         0.0833
     60 H17        -3.7658   -4.0054    1.8743 H         1 <0>         0.1215
     61 H18        -2.4792   -4.9615    3.7434 H         1 <0>         0.1212
     62 H19        -0.5685   -3.7247    4.6828 H         1 <0>         0.1201
     63 H20         0.0563   -1.5322    3.7525 H         1 <0>         0.1198
     64 H21        -1.2251   -0.5798    1.8778 H         1 <0>         0.1169
     65 H22        -4.9927   -3.0779   -1.6753 H         1 <0>         0.4035
     66 H23        -4.9646   -3.4631   -4.5345 H         1 <0>         0.0799
     67 H24        -5.6987   -2.1013   -5.4148 H         1 <0>         0.0818
     68 H25        -2.4532   -3.5941   -5.1308 H         1 <0>         0.1650
     69 H26        -1.5302    0.5518   -5.2489 H         1 <0>         0.1969
     70 H27        -7.7262   -1.3816   -4.7229 H         1 <0>         0.3965
     71 H28        -9.6277   -1.4567   -2.0076 H         1 <0>         0.0712
     72 H29       -10.2494   -0.6360   -3.4596 H         1 <0>         0.0738
     73 H30       -11.9598   -2.4708   -3.6922 H         1 <0>         0.0697
     74 H31       -10.7104   -4.2114   -2.4441 H         1 <0>         0.0615
     75 H32       -10.8896   -3.2662   -0.9465 H         1 <0>         0.0644
     76 H33       -13.1771   -4.3787   -2.6337 H         1 <0>         0.0588
     77 H34       -12.6085   -5.0480   -1.0855 H         1 <0>         0.0609
     78 H35       -14.5924   -3.5980   -0.7533 H         1 <0>         0.0597
     79 H36       -13.1566   -2.9080    0.0409 H         1 <0>         0.0612
     80 H37       -14.2268   -2.1126   -2.7048 H         1 <0>         0.0602
     81 H38       -14.4060   -1.1674   -1.2073 H         1 <0>         0.0608
     82 H39       -11.9393   -1.0001   -1.0176 H         1 <0>         0.0615
     83 H40       -12.5079   -0.3308   -2.5659 H         1 <0>         0.0621
     84 H41       -10.7436   -4.0833   -7.3935 H         1 <0>         0.0663
     85 H42        -9.7934   -2.6854   -7.9517 H         1 <0>         0.1186
     86 H43        -9.8803   -5.2819   -5.3924 H         1 <0>         0.3730
     87 H44        -9.1457   -0.9156   -5.9499 H         1 <0>         0.3757
@<TRIPOS>BOND
     1    1    2 1
     2    1   50 1
     3    1   51 1
     4    1   52 1
     5    2    3 1
     6    2    4 1
     7    2   53 1
     8    3   54 1
     9    3   55 1
    10    3   56 1
    11    4    5 2
    12    4    6 am
    13    6    7 1
    14    6   57 1
    15    7    8 1
    16    7    9 1
    17    7   16 1
    18    9   10 1
    19    9   58 1
    20    9   59 1
    21   10   15 ar
    22   10   11 ar
    23   11   12 ar
    24   11   60 1
    25   12   13 ar
    26   12   61 1
    27   13   14 ar
    28   13   62 1
    29   14   15 ar
    30   14   63 1
    31   15   64 1
    32   16   17 2
    33   16   18 am
    34   18   19 1
    35   18   65 1
    36   19   20 1
    37   19   21 1
    38   19   28 1
    39   21   22 1
    40   21   66 1
    41   21   67 1
    42   22   27 1
    43   22   23 2
    44   23   24 1
    45   23   68 1
    46   24   25 1
    47   24   26 1
    48   26   27 2
    49   26   69 1
    50   28   29 2
    51   28   30 am
    52   30   31 1
    53   30   70 1
    54   31   32 1
    55   31   33 1
    56   31   40 1
    57   33   34 1
    58   33   71 1
    59   33   72 1
    60   34   39 1
    61   34   35 1
    62   34   73 1
    63   35   36 1
    64   35   74 1
    65   35   75 1
    66   36   37 1
    67   36   76 1
    68   36   77 1
    69   37   38 1
    70   37   78 1
    71   37   79 1
    72   38   39 1
    73   38   80 1
    74   38   81 1
    75   39   82 1
    76   39   83 1
    77   40   41 1
    78   40   42 1
    79   40   49 1
    80   42   43 1
    81   42   44 1
    82   42   48 1
    83   44   45 1
    84   44   84 1
    85   44   85 1
    86   45   46 2
    87   46   47 2
    88   48   86 1
    89   49   87 1
@<TRIPOS>MOLECULE
CHEMBL447651
   87    91     0     0     0
SMALL
USER_CHARGES

@<TRIPOS>ATOM
      1 C1          0.5499   -0.5718    0.9801 C.3       1 <0>        -0.1759
      2 C2          0.3598    0.1146   -0.3480 C.2       1 <0>         0.5127
      3 O1          0.2661    1.3228   -0.3983 O.2       1 <0>        -0.5236
      4 N1          0.2939   -0.6141   -1.4799 N.am      1 <0>        -0.6108
      5 C3          0.2918   -2.0826   -1.4348 C.3       1 <0>         0.0743
      6 C4         -0.8281   -2.6289   -2.3090 C.3       1 <0>         0.0735
      7 H1         -0.6486   -3.6944   -2.4520 H         1 <0>         0.0995
      8 C5         -2.1910   -2.4726   -1.6516 C.3       1 <0>        -0.0671
      9 C6         -2.7346   -1.0889   -1.8608 C.2       1 <0>        -0.0191
     10 C7         -2.2012   -0.2227   -2.7312 C.2       1 <0>        -0.1366
     11 C8         -0.9808   -0.5527   -3.5485 C.3       1 <0>         0.1243
     12 H2         -1.0672   -0.1146   -4.5429 H         1 <0>         0.1085
     13 C9          0.2156    0.0384   -2.7982 C.3       1 <0>         0.0807
     14 N2         -0.8357   -1.9964   -3.6301 N.3       1 <0>        -0.6632
     15 C10        -2.8262    1.0896   -2.8940 C.2       1 <0>         0.5602
     16 O2         -2.3408    2.0661   -2.3532 O.2       1 <0>        -0.5166
     17 N3         -3.9394    1.2176   -3.6427 N.am      1 <0>        -0.6080
     18 C11        -4.4681    0.0626   -4.3726 C.3       1 <0>         0.0788
     19 C12        -4.6209    2.5118   -3.7268 C.3       1 <0>         0.1261
     20 C13        -4.0497    3.3138   -4.8979 C.3       1 <0>        -0.0933
     21 C14        -4.7507    4.6450   -4.9843 C.ar      1 <0>        -0.0813
     22 C15        -5.8958    4.7750   -5.7478 C.ar      1 <0>        -0.1175
     23 C16        -6.5388    5.9961   -5.8271 C.ar      1 <0>        -0.1195
     24 C17        -6.0370    7.0872   -5.1425 C.ar      1 <0>        -0.1233
     25 C18        -4.8924    6.9571   -4.3784 C.ar      1 <0>        -0.1175
     26 C19        -4.2518    5.7349   -4.2956 C.ar      1 <0>        -0.1120
     27 C20        -3.9038   -0.6669   -1.0760 C.ar      1 <0>        -0.1076
     28 C21        -3.7883    0.3755   -0.1491 C.ar      1 <0>        -0.0519
     29 C22        -4.8862    0.7669    0.5833 C.ar      1 <0>        -0.1484
     30 C23        -6.1080    0.1284    0.4040 C.ar      1 <0>         0.1400
     31 C24        -6.2281   -0.9075   -0.5154 C.ar      1 <0>        -0.2110
     32 C25        -5.1377   -1.3023   -1.2573 C.ar      1 <0>        -0.0583
     33 O3         -7.1874    0.5175    1.1293 O.3       1 <0>        -0.3107
     34 C26        -8.4121   -0.1808    0.8954 C.3       1 <0>         0.0642
     35 C27        -9.5066    0.3931    1.7973 C.3       1 <0>        -0.1198
     36 C28       -10.8178   -0.3545    1.5470 C.3       1 <0>         0.0691
     37 O4        -11.8402    0.1816    2.3893 O.3       1 <0>        -0.3832
     38 C29       -13.1124   -0.4501    2.2333 C.3       1 <0>         0.1172
     39 C30       -14.1091    0.1909    3.1643 C.ar      1 <0>        -0.1231
     40 C31       -13.7178    1.2295    3.9872 C.ar      1 <0>        -0.0590
     41 C32       -14.6315    1.8177    4.8419 C.ar      1 <0>        -0.1571
     42 C33       -15.9390    1.3687    4.8752 C.ar      1 <0>        -0.0799
     43 C34       -16.3353    0.3310    4.0542 C.ar      1 <0>        -0.2077
     44 C35       -15.4214   -0.2575    3.1918 C.ar      1 <0>         0.1303
     45 O5        -15.8102   -1.2749    2.3790 O.3       1 <0>        -0.3183
     46 C36       -17.1768   -1.6846    2.4607 C.3       1 <0>         0.0269
     47 H3         -0.4227   -0.7561    1.4363 H         1 <0>         0.0922
     48 H4          1.0657   -1.5200    0.8284 H         1 <0>         0.0793
     49 H5          1.1442    0.0643    1.6360 H         1 <0>         0.0937
     50 H6          1.2491   -2.4569   -1.7975 H         1 <0>         0.0716
     51 H7          0.1421   -2.4127   -0.4069 H         1 <0>         0.0941
     52 H8         -2.8816   -3.1973   -2.0828 H         1 <0>         0.0914
     53 H9         -2.0964   -2.6621   -0.5823 H         1 <0>         0.0815
     54 H10         0.0964    1.1146   -2.6735 H         1 <0>         0.1093
     55 H11         1.1187   -0.1723   -3.3710 H         1 <0>         0.0685
     56 H12         0.0007   -2.2260   -4.1456 H         1 <0>         0.3509
     57 H13        -5.2394   -0.4230   -3.7748 H         1 <0>         0.0544
     58 H14        -4.8969    0.3954   -5.3179 H         1 <0>         0.0680
     59 H15        -3.6615   -0.6438   -4.5682 H         1 <0>         0.0790
     60 H16        -5.6877    2.3512   -3.8824 H         1 <0>         0.0754
     61 H17        -4.4680    3.0638   -2.7994 H         1 <0>         0.0837
     62 H18        -2.9829    3.4744   -4.7423 H         1 <0>         0.0773
     63 H19        -4.2026    2.7618   -5.8252 H         1 <0>         0.0720
     64 H20        -6.2878    3.9225   -6.2826 H         1 <0>         0.1197
     65 H21        -7.4330    6.0977   -6.4241 H         1 <0>         0.1212
     66 H22        -6.5389    8.0414   -5.2051 H         1 <0>         0.1209
     67 H23        -4.5002    7.8096   -3.8438 H         1 <0>         0.1220
     68 H24        -3.3597    5.6323   -3.6956 H         1 <0>         0.1231
     69 H25        -2.8394    0.8717   -0.0085 H         1 <0>         0.1304
     70 H26        -4.7982    1.5711    1.2988 H         1 <0>         0.1313
     71 H27        -7.1794   -1.4003   -0.6510 H         1 <0>         0.1285
     72 H28        -5.2331   -2.1042   -1.9744 H         1 <0>         0.1255
     73 H29        -8.7032   -0.0642   -0.1485 H         1 <0>         0.0649
     74 H30        -8.2753   -1.2390    1.1185 H         1 <0>         0.0654
     75 H31        -9.2155    0.2765    2.8412 H         1 <0>         0.0845
     76 H32        -9.6434    1.4513    1.5743 H         1 <0>         0.0844
     77 H33       -11.1090   -0.2379    0.5031 H         1 <0>         0.0538
     78 H34       -10.6811   -1.4126    1.7700 H         1 <0>         0.0540
     79 H35       -13.4511   -0.3355    1.2036 H         1 <0>         0.0639
     80 H36       -13.0232   -1.5102    2.4706 H         1 <0>         0.0640
     81 H37       -12.6973    1.5820    3.9630 H         1 <0>         0.1395
     82 H38       -14.3236    2.6290    5.4848 H         1 <0>         0.1259
     83 H39       -16.6509    1.8295    5.5440 H         1 <0>         0.1257
     84 H40       -17.3565   -0.0194    4.0807 H         1 <0>         0.1298
     85 H41       -17.3956   -2.0197    3.4746 H         1 <0>         0.0566
     86 H42       -17.8237   -0.8445    2.2082 H         1 <0>         0.0566
     87 H43       -17.3534   -2.5021    1.7618 H         1 <0>         0.1014
@<TRIPOS>BOND
     1    1    2 1
     2    1   47 1
     3    1   48 1
     4    1   49 1
     5    2    3 2
     6    2    4 am
     7    4   13 1
     8    4    5 1
     9    5    6 1
    10    5   50 1
    11    5   51 1
    12    6    7 1
    13    6   14 1
    14    6    8 1
    15    8    9 1
    16    8   52 1
    17    8   53 1
    18    9   10 2
    19    9   27 1
    20   10   11 1
    21   10   15 1
    22   11   12 1
    23   11   13 1
    24   11   14 1
    25   13   54 1
    26   13   55 1
    27   14   56 1
    28   15   16 2
    29   15   17 am
    30   17   18 1
    31   17   19 1
    32   18   57 1
    33   18   58 1
    34   18   59 1
    35   19   20 1
    36   19   60 1
    37   19   61 1
    38   20   21 1
    39   20   62 1
    40   20   63 1
    41   21   26 ar
    42   21   22 ar
    43   22   23 ar
    44   22   64 1
    45   23   24 ar
    46   23   65 1
    47   24   25 ar
    48   24   66 1
    49   25   26 ar
    50   25   67 1
    51   26   68 1
    52   27   32 ar
    53   27   28 ar
    54   28   29 ar
    55   28   69 1
    56   29   30 ar
    57   29   70 1
    58   30   31 ar
    59   30   33 1
    60   31   32 ar
    61   31   71 1
    62   32   72 1
    63   33   34 1
    64   34   35 1
    65   34   73 1
    66   34   74 1
    67   35   36 1
    68   35   75 1
    69   35   76 1
    70   36   37 1
    71   36   77 1
    72   36   78 1
    73   37   38 1
    74   38   39 1
    75   38   79 1
    76   38   80 1
    77   39   44 ar
    78   39   40 ar
    79   40   41 ar
    80   40   81 1
    81   41   42 ar
    82   41   82 1
    83   42   43 ar
    84   42   83 1
    85   43   44 ar
    86   43   84 1
    87   44   45 1
    88   45   46 1
    89   46   85 1
    90   46   86 1
    91   46   87 1
@<TRIPOS>MOLECULE
CHEMBL53115
   78    81     0     0     0
SMALL
USER_CHARGES

@<TRIPOS>ATOM
      1 C1         -0.0187    1.5258    0.0104 C.3       1 <0>        -0.1563
      2 C2          0.0021   -0.0041    0.0020 C.3       1 <0>        -0.1285
      3 C3          0.7421   -0.5109    1.2415 C.3       1 <0>        -0.1454
      4 C4         -1.4333   -0.5336    0.0129 C.3       1 <0>         0.1142
      5 H1         -1.4190   -1.6203    0.0965 H         1 <0>         0.1050
      6 C5         -2.1352   -0.1312   -1.2857 C.3       1 <0>        -0.1852
      7 C6         -3.5271   -0.7649   -1.3306 C.3       1 <0>         0.1042
      8 H2         -4.0812   -0.4887   -0.4334 H         1 <0>         0.1194
      9 C7         -4.2760   -0.2636   -2.5670 C.3       1 <0>         0.1133
     10 H3         -4.3720    0.8211   -2.5187 H         1 <0>         0.1020
     11 C8         -5.6679   -0.8973   -2.6119 C.3       1 <0>        -0.1217
     12 C9         -6.4617   -0.3026   -3.7769 C.3       1 <0>        -0.0818
     13 C10        -6.7029    1.1866   -3.5222 C.3       1 <0>        -0.1043
     14 C11        -7.4967    1.7812   -4.6872 C.3       1 <0>        -0.1114
     15 C12        -8.8407    1.0604   -4.8092 C.3       1 <0>        -0.1203
     16 C13        -8.5994   -0.4288   -5.0640 C.3       1 <0>        -0.1169
     17 C14        -7.8057   -1.0235   -3.8990 C.3       1 <0>        -0.1150
     18 N1         -3.5314   -0.6348   -3.7728 N.am      1 <0>        -0.7184
     19 C15        -3.6799    0.0825   -4.9041 C.2       1 <0>         0.5123
     20 O1         -4.4301    1.0353   -4.9239 O.2       1 <0>        -0.5079
     21 C16        -2.9139   -0.2993   -6.1445 C.3       1 <0>         0.1388
     22 H4         -3.1818   -1.3140   -6.4390 H         1 <0>         0.1255
     23 C17        -1.4126   -0.2309   -5.8580 C.3       1 <0>        -0.0384
     24 C18        -0.6490   -0.7297   -7.0576 C.2       1 <0>         0.0048
     25 C19         0.3193   -0.0617   -7.7132 C.2       1 <0>        -0.0557
     26 N2          0.7409   -0.8737   -8.7313 N.pl3     1 <0>        -0.5718
     27 H5          1.4320   -0.6705   -9.3810 H         1 <0>         0.4172
     28 C20         0.0151   -2.0104   -8.6624 C.2       1 <0>         0.1920
     29 N3         -0.8106   -1.9192   -7.6560 N.2       1 <0>        -0.4523
     30 N4         -3.2469    0.6279   -7.2288 N.am      1 <0>        -0.6844
     31 C21        -3.1153    0.2387   -8.5124 C.2       1 <0>         0.5994
     32 O2         -2.7205   -0.8814   -8.7704 O.2       1 <0>        -0.4966
     33 C22        -3.4516    1.1750   -9.6074 C.2       1 <0>         0.2366
     34 N5         -3.3626    0.8891  -10.9446 N.pl3     1 <0>        -0.5628
     35 H6         -3.0728    0.0507  -11.3368 H         1 <0>         0.4309
     36 C23        -3.7619    2.0157  -11.6257 C.ar      1 <0>         0.0600
     37 C24        -3.8854    2.3374  -12.9722 C.ar      1 <0>        -0.1152
     38 C25        -4.3262    3.5901  -13.3372 C.ar      1 <0>        -0.0883
     39 C26        -4.6483    4.5344  -12.3701 C.ar      1 <0>        -0.1278
     40 C27        -4.5342    4.2404  -11.0430 C.ar      1 <0>        -0.0545
     41 C28        -4.0884    2.9727  -10.6446 C.ar      1 <0>         0.0438
     42 N6         -3.8843    2.3997   -9.4451 N.2       1 <0>        -0.4454
     43 O3         -3.4013   -2.1869   -1.3939 O.3       1 <0>        -0.5480
     44 O4         -2.1371    0.0205    1.1263 O.3       1 <0>        -0.5562
     45 H7          1.0039    1.9031    0.0027 H         1 <0>         0.0592
     46 H8         -0.5459    1.8868   -0.8726 H         1 <0>         0.0571
     47 H9         -0.5289    1.8773    0.9072 H         1 <0>         0.0577
     48 H10         0.5123   -0.3556   -0.8948 H         1 <0>         0.0758
     49 H11         0.2319   -0.1594    2.1383 H         1 <0>         0.0613
     50 H12         0.7568   -1.6008    1.2356 H         1 <0>         0.0544
     51 H13         1.7647   -0.1336    1.2338 H         1 <0>         0.0528
     52 H14        -2.2286    0.9540   -1.3270 H         1 <0>         0.0797
     53 H15        -1.5503   -0.4783   -2.1375 H         1 <0>         0.0760
     54 H16        -5.5725   -1.9744   -2.7495 H         1 <0>         0.0704
     55 H17        -6.1894   -0.6953   -1.6763 H         1 <0>         0.0714
     56 H18        -5.8977   -0.4264   -4.7015 H         1 <0>         0.0741
     57 H19        -7.2669    1.3103   -2.5976 H         1 <0>         0.0456
     58 H20        -5.7454    1.7001   -3.4353 H         1 <0>         0.0772
     59 H21        -7.6686    2.8422   -4.5057 H         1 <0>         0.0531
     60 H22        -6.9328    1.6575   -5.6117 H         1 <0>         0.0642
     61 H23        -9.4046    1.1842   -3.8847 H         1 <0>         0.0572
     62 H24        -9.4062    1.4841   -5.6392 H         1 <0>         0.0554
     63 H25        -9.5569   -0.9424   -5.1509 H         1 <0>         0.0563
     64 H26        -8.0355   -0.5526   -5.9885 H         1 <0>         0.0571
     65 H27        -7.6338   -2.0844   -4.0804 H         1 <0>         0.0554
     66 H28        -8.3696   -0.8997   -2.9744 H         1 <0>         0.0582
     67 H29        -2.9314   -1.3968   -3.7570 H         1 <0>         0.3966
     68 H30        -1.1290    0.8008   -5.6501 H         1 <0>         0.0832
     69 H31        -1.1788   -0.8531   -4.9940 H         1 <0>         0.0869
     70 H32         0.6913    0.9251   -7.4806 H         1 <0>         0.1676
     71 H33         0.1059   -2.8565   -9.3275 H         1 <0>         0.2011
     72 H34        -3.5620    1.5219   -7.0229 H         1 <0>         0.4206
     73 H35        -3.6364    1.6082  -13.7290 H         1 <0>         0.1265
     74 H36        -4.4219    3.8406  -14.3834 H         1 <0>         0.1342
     75 H37        -4.9926    5.5124  -12.6725 H         1 <0>         0.1336
     76 H38        -4.7869    4.9830  -10.3006 H         1 <0>         0.1339
     77 H39        -2.9179   -2.5049   -2.1687 H         1 <0>         0.3668
     78 H40        -2.1892    0.9861    1.1175 H         1 <0>         0.3702
@<TRIPOS>BOND
     1    1    2 1
     2    1   45 1
     3    1   46 1
     4    1   47 1
     5    2    3 1
     6    2    4 1
     7    2   48 1
     8    3   49 1
     9    3   50 1
    10    3   51 1
    11    4    5 1
    12    4    6 1
    13    4   44 1
    14    6    7 1
    15    6   52 1
    16    6   53 1
    17    7    8 1
    18    7    9 1
    19    7   43 1
    20    9   10 1
    21    9   11 1
    22    9   18 1
    23   11   12 1
    24   11   54 1
    25   11   55 1
    26   12   17 1
    27   12   13 1
    28   12   56 1
    29   13   14 1
    30   13   57 1
    31   13   58 1
    32   14   15 1
    33   14   59 1
    34   14   60 1
    35   15   16 1
    36   15   61 1
    37   15   62 1
    38   16   17 1
    39   16   63 1
    40   16   64 1
    41   17   65 1
    42   17   66 1
    43   18   19 am
    44   18   67 1
    45   19   20 2
    46   19   21 1
    47   21   22 1
    48   21   23 1
    49   21   30 1
    50   23   24 1
    51   23   68 1
    52   23   69 1
    53   24   29 1
    54   24   25 2
    55   25   26 1
    56   25   70 1
    57   26   27 1
    58   26   28 1
    59   28   29 2
    60   28   71 1
    61   30   31 am
    62   30   72 1
    63   31   32 2
    64   31   33 1
    65   33   42 2
    66   33   34 1
    67   34   35 1
    68   34   36 1
    69   36   41 ar
    70   36   37 ar
    71   37   38 ar
    72   37   73 1
    73   38   39 ar
    74   38   74 1
    75   39   40 ar
    76   39   75 1
    77   40   41 ar
    78   40   76 1
    79   41   42 1
    80   43   77 1
    81   44   78 1
@<TRIPOS>MOLECULE
CHEMBL53115__1
   79    82     0     0     0
SMALL
USER_CHARGES

@<TRIPOS>ATOM
      1 C1         -0.0187    1.5258    0.0104 C.3       1 <0>        -0.1577
      2 C2          0.0021   -0.0041    0.0020 C.3       1 <0>        -0.1261
      3 C3          0.7182   -0.4975   -1.2568 C.3       1 <0>        -0.1480
      4 C4          0.7421   -0.5109    1.2415 C.3       1 <0>         0.1127
      5 H1          0.8346   -1.5958    1.1912 H         1 <0>         0.1053
      6 C5         -0.0416   -0.1236    2.4973 C.3       1 <0>        -0.1830
      7 C6          0.6310   -0.7363    3.7274 C.3       1 <0>         0.1021
      8 H2          1.6777   -0.4337    3.7577 H         1 <0>         0.1242
      9 C7         -0.0779   -0.2483    4.9924 C.3       1 <0>         0.1130
     10 H3         -0.0153    0.8385    5.0476 H         1 <0>         0.1060
     11 C8          0.5947   -0.8610    6.2225 C.3       1 <0>        -0.1244
     12 C9         -0.0322   -0.2774    7.4903 C.3       1 <0>        -0.0791
     13 C10         0.2715    1.2202    7.5666 C.3       1 <0>        -0.1066
     14 C11        -0.3554    1.8037    8.8344 C.3       1 <0>        -0.1102
     15 C12         0.2287    1.1016   10.0619 C.3       1 <0>        -0.1230
     16 C13        -0.0751   -0.3960    9.9855 C.3       1 <0>        -0.1163
     17 C14         0.5518   -0.9795    8.7178 C.3       1 <0>        -0.1168
     18 N1         -1.4847   -0.6550    4.9516 N.am      1 <0>        -0.7141
     19 C15        -2.4079    0.0418    5.6434 C.2       1 <0>         0.5080
     20 O1         -2.0741    1.0055    6.2996 O.2       1 <0>        -0.4895
     21 C16        -3.8551   -0.3766    5.6014 C.3       1 <0>         0.1277
     22 H4         -3.9508   -1.3927    5.9842 H         1 <0>         0.1298
     23 C17        -4.3590   -0.3259    4.1577 C.3       1 <0>        -0.0713
     24 C18        -5.7667   -0.8605    4.0979 C.2       1 <0>         0.0369
     25 C19        -6.1173   -2.1567    3.9959 C.2       1 <0>         0.0552
     26 N2         -7.4854   -2.1965    3.9746 N.pl3     1 <0>        -0.5004
     27 H5         -8.0372   -2.9914    3.9076 H         1 <0>         0.4668
     28 C20        -7.9235   -0.9222    4.0643 C.cat     1 <0>         0.3077
     29 N3         -6.8901   -0.1291    4.1428 N.pl3     1 <0>        -0.4734
     30 N4         -4.6508    0.5337    6.4286 N.am      1 <0>        -0.6867
     31 C21        -5.8182    0.1170    6.9578 C.2       1 <0>         0.6109
     32 O2         -6.2107   -1.0141    6.7488 O.2       1 <0>        -0.5383
     33 C22        -6.6217    1.0363    7.7932 C.2       1 <0>         0.1999
     34 N5         -7.8167    0.7224    8.3857 N.pl3     1 <0>        -0.5633
     35 H6         -8.2801   -0.1281    8.3337 H         1 <0>         0.4302
     36 C23        -8.2352    1.8413    9.0681 C.ar      1 <0>         0.0716
     37 C24        -9.3474    2.1378    9.8470 C.ar      1 <0>        -0.1211
     38 C25        -9.4746    3.3897   10.4069 C.ar      1 <0>        -0.0723
     39 C26        -8.5000    4.3581   10.1991 C.ar      1 <0>        -0.1217
     40 C27        -7.4006    4.0889    9.4378 C.ar      1 <0>        -0.0504
     41 C28        -7.2466    2.8226    8.8569 C.ar      1 <0>         0.0402
     42 N6         -6.2957    2.2706    8.0825 N.2       1 <0>        -0.4290
     43 O3          0.5490   -2.1611    3.6550 O.3       1 <0>        -0.5425
     44 O4          2.0438    0.0763    1.2925 O.3       1 <0>        -0.5537
     45 H7          1.0039    1.9031    0.0027 H         1 <0>         0.0605
     46 H8         -0.5459    1.8868   -0.8726 H         1 <0>         0.0605
     47 H9         -0.5289    1.8773    0.9072 H         1 <0>         0.0545
     48 H10        -1.0205   -0.3814    0.0098 H         1 <0>         0.0721
     49 H11         1.7408   -0.1202   -1.2645 H         1 <0>         0.0639
     50 H12         0.7330   -1.5874   -1.2628 H         1 <0>         0.0552
     51 H13         0.1910   -0.1364   -2.1398 H         1 <0>         0.0544
     52 H14        -0.0580    0.9619    2.5950 H         1 <0>         0.0807
     53 H15        -1.0627   -0.4967    2.4178 H         1 <0>         0.0705
     54 H16         0.4549   -1.9419    6.2124 H         1 <0>         0.0719
     55 H17         1.6603   -0.6322    6.2057 H         1 <0>         0.0770
     56 H18        -1.1114   -0.4284    7.4645 H         1 <0>         0.0683
     57 H19         1.3507    1.3712    7.5923 H         1 <0>         0.0502
     58 H20        -0.1446    1.7204    6.6921 H         1 <0>         0.0748
     59 H21        -0.1390    2.8706    8.8888 H         1 <0>         0.0555
     60 H22        -1.4346    1.6527    8.8087 H         1 <0>         0.0602
     61 H23         1.3078    1.2526   10.0876 H         1 <0>         0.0604
     62 H24        -0.2180    1.5173   10.9651 H         1 <0>         0.0575
     63 H25         0.3410   -0.8962   10.8600 H         1 <0>         0.0593
     64 H26        -1.1543   -0.5470    9.9598 H         1 <0>         0.0541
     65 H27         0.3354   -2.0464    8.6633 H         1 <0>         0.0557
     66 H28         1.6310   -0.8285    8.7435 H         1 <0>         0.0618
     67 H29        -1.7517   -1.4258    4.4267 H         1 <0>         0.3944
     68 H30        -4.3466    0.7052    3.8045 H         1 <0>         0.1100
     69 H31        -3.7122   -0.9343    3.5255 H         1 <0>         0.1270
     70 H32        -5.4478   -3.0024    3.9412 H         1 <0>         0.2243
     71 H33        -8.9577   -0.6113    4.0737 H         1 <0>         0.2614
     72 H34        -4.3375    1.4365    6.5955 H         1 <0>         0.4320
     73 H35       -10.1087    1.3898   10.0123 H         1 <0>         0.1306
     74 H36       -10.3388    3.6207   11.0120 H         1 <0>         0.1405
     75 H37        -8.6144    5.3350   10.6450 H         1 <0>         0.1399
     76 H38        -6.6502    4.8500    9.2829 H         1 <0>         0.1381
     77 H39        -0.3554   -2.5020    3.6248 H         1 <0>         0.3617
     78 H40         2.0381    1.0422    1.3386 H         1 <0>         0.3720
     79 H41        -6.9284    0.8371    4.2195 H         1 <0>         0.4599
@<TRIPOS>BOND
     1    1    2 1
     2    1   45 1
     3    1   46 1
     4    1   47 1
     5    2    3 1
     6    2    4 1
     7    2   48 1
     8    3   49 1
     9    3   50 1
    10    3   51 1
    11    4    5 1
    12    4    6 1
    13    4   44 1
    14    6    7 1
    15    6   52 1
    16    6   53 1
    17    7    8 1
    18    7    9 1
    19    7   43 1
    20    9   10 1
    21    9   11 1
    22    9   18 1
    23   11   12 1
    24   11   54 1
    25   11   55 1
    26   12   17 1
    27   12   13 1
    28   12   56 1
    29   13   14 1
    30   13   57 1
    31   13   58 1
    32   14   15 1
    33   14   59 1
    34   14   60 1
    35   15   16 1
    36   15   61 1
    37   15   62 1
    38   16   17 1
    39   16   63 1
    40   16   64 1
    41   17   65 1
    42   17   66 1
    43   18   19 am
    44   18   67 1
    45   19   20 2
    46   19   21 1
    47   21   22 1
    48   21   23 1
    49   21   30 1
    50   23   24 1
    51   23   68 1
    52   23   69 1
    53   24   29 1
    54   24   25 2
    55   25   26 1
    56   25   70 1
    57   26   27 1
    58   26   28 1
    59   28   29 2
    60   28   71 1
    61   29   79 1
    62   30   31 am
    63   30   72 1
    64   31   32 2
    65   31   33 1
    66   33   42 2
    67   33   34 1
    68   34   35 1
    69   34   36 1
    70   36   41 ar
    71   36   37 ar
    72   37   38 ar
    73   37   73 1
    74   38   39 ar
    75   38   74 1
    76   39   40 ar
    77   39   75 1
    78   40   41 ar
    79   40   76 1
    80   41   42 1
    81   43   77 1
    82   44   78 1
@<TRIPOS>MOLECULE
CHEMBL53115__2
   78    81     0     0     0
SMALL
USER_CHARGES

@<TRIPOS>ATOM
      1 C1         -0.0187    1.5258    0.0104 C.3       1 <0>        -0.1568
      2 C2          0.0021   -0.0041    0.0020 C.3       1 <0>        -0.1282
      3 C3          0.7421   -0.5109    1.2415 C.3       1 <0>        -0.1457
      4 C4         -1.4333   -0.5336    0.0129 C.3       1 <0>         0.1143
      5 H1         -1.4190   -1.6203    0.0965 H         1 <0>         0.1044
      6 C5         -2.1352   -0.1312   -1.2857 C.3       1 <0>        -0.1850
      7 C6         -3.5271   -0.7649   -1.3306 C.3       1 <0>         0.1038
      8 H2         -4.0812   -0.4887   -0.4334 H         1 <0>         0.1210
      9 C7         -4.2760   -0.2636   -2.5670 C.3       1 <0>         0.1131
     10 H3         -4.3720    0.8211   -2.5187 H         1 <0>         0.1037
     11 C8         -5.6679   -0.8973   -2.6119 C.3       1 <0>        -0.1218
     12 C9         -6.4617   -0.3026   -3.7769 C.3       1 <0>        -0.0818
     13 C10        -6.7029    1.1866   -3.5222 C.3       1 <0>        -0.1048
     14 C11        -7.4967    1.7812   -4.6872 C.3       1 <0>        -0.1116
     15 C12        -8.8407    1.0604   -4.8092 C.3       1 <0>        -0.1207
     16 C13        -8.5994   -0.4288   -5.0640 C.3       1 <0>        -0.1170
     17 C14        -7.8057   -1.0235   -3.8990 C.3       1 <0>        -0.1150
     18 N1         -3.5314   -0.6348   -3.7728 N.am      1 <0>        -0.7188
     19 C15        -3.6799    0.0825   -4.9041 C.2       1 <0>         0.5119
     20 O1         -4.4301    1.0353   -4.9239 O.2       1 <0>        -0.5000
     21 C16        -2.9139   -0.2993   -6.1445 C.3       1 <0>         0.1364
     22 H4         -3.1818   -1.3140   -6.4390 H         1 <0>         0.1155
     23 C17        -1.4126   -0.2309   -5.8580 C.3       1 <0>        -0.0501
     24 C18        -0.6490   -0.7297   -7.0576 C.2       1 <0>        -0.0189
     25 C19        -0.2929   -0.0100   -8.1387 C.2       1 <0>        -0.0049
     26 N2          0.3721   -0.8200   -8.9758 N.2       1 <0>        -0.4873
     27 H5         -0.2758   -2.7505   -6.6483 H         1 <0>         0.4156
     28 C20         0.4415   -2.0143   -8.4546 C.2       1 <0>         0.1929
     29 N3         -0.1789   -2.0000   -7.2552 N.pl3     1 <0>        -0.5596
     30 N4         -3.2469    0.6279   -7.2288 N.am      1 <0>        -0.6866
     31 C21        -3.1153    0.2387   -8.5124 C.2       1 <0>         0.6110
     32 O2         -2.7205   -0.8814   -8.7704 O.2       1 <0>        -0.5105
     33 C22        -3.4516    1.1750   -9.6074 C.2       1 <0>         0.2343
     34 N5         -3.3626    0.8891  -10.9446 N.pl3     1 <0>        -0.5582
     35 H6         -3.0728    0.0507  -11.3368 H         1 <0>         0.4327
     36 C23        -3.7619    2.0157  -11.6257 C.ar      1 <0>         0.0633
     37 C24        -3.8854    2.3374  -12.9722 C.ar      1 <0>        -0.1142
     38 C25        -4.3262    3.5901  -13.3372 C.ar      1 <0>        -0.0876
     39 C26        -4.6483    4.5344  -12.3701 C.ar      1 <0>        -0.1276
     40 C27        -4.5342    4.2404  -11.0430 C.ar      1 <0>        -0.0545
     41 C28        -4.0884    2.9727  -10.6446 C.ar      1 <0>         0.0437
     42 N6         -3.8843    2.3997   -9.4451 N.2       1 <0>        -0.4446
     43 O3         -3.4013   -2.1869   -1.3939 O.3       1 <0>        -0.5467
     44 O4         -2.1371    0.0205    1.1263 O.3       1 <0>        -0.5558
     45 H7          1.0039    1.9031    0.0027 H         1 <0>         0.0601
     46 H8         -0.5459    1.8868   -0.8726 H         1 <0>         0.0570
     47 H9         -0.5289    1.8773    0.9072 H         1 <0>         0.0583
     48 H10         0.5123   -0.3556   -0.8948 H         1 <0>         0.0748
     49 H11         0.2319   -0.1594    2.1383 H         1 <0>         0.0619
     50 H12         0.7568   -1.6008    1.2356 H         1 <0>         0.0541
     51 H13         1.7647   -0.1336    1.2338 H         1 <0>         0.0535
     52 H14        -2.2286    0.9540   -1.3270 H         1 <0>         0.0808
     53 H15        -1.5503   -0.4783   -2.1375 H         1 <0>         0.0740
     54 H16        -5.5725   -1.9744   -2.7495 H         1 <0>         0.0698
     55 H17        -6.1894   -0.6953   -1.6763 H         1 <0>         0.0728
     56 H18        -5.8977   -0.4264   -4.7015 H         1 <0>         0.0728
     57 H19        -7.2669    1.3103   -2.5976 H         1 <0>         0.0466
     58 H20        -5.7454    1.7001   -3.4353 H         1 <0>         0.0770
     59 H21        -7.6686    2.8422   -4.5057 H         1 <0>         0.0542
     60 H22        -6.9328    1.6575   -5.6117 H         1 <0>         0.0643
     61 H23        -9.4046    1.1842   -3.8847 H         1 <0>         0.0576
     62 H24        -9.4062    1.4841   -5.6392 H         1 <0>         0.0563
     63 H25        -9.5569   -0.9424   -5.1509 H         1 <0>         0.0569
     64 H26        -8.0355   -0.5526   -5.9885 H         1 <0>         0.0567
     65 H27        -7.6338   -2.0844   -4.0804 H         1 <0>         0.0547
     66 H28        -8.3696   -0.8997   -2.9744 H         1 <0>         0.0590
     67 H29        -2.9314   -1.3968   -3.7570 H         1 <0>         0.3938
     68 H30        -1.1290    0.8008   -5.6501 H         1 <0>         0.0992
     69 H31        -1.1788   -0.8531   -4.9940 H         1 <0>         0.0843
     70 H32        -0.5054    1.0361   -8.3028 H         1 <0>         0.1539
     71 H33         0.9191   -2.8713   -8.9061 H         1 <0>         0.2039
     72 H34        -3.5620    1.5219   -7.0229 H         1 <0>         0.4243
     73 H35        -3.6364    1.6082  -13.7290 H         1 <0>         0.1274
     74 H36        -4.4219    3.8406  -14.3834 H         1 <0>         0.1344
     75 H37        -4.9926    5.5124  -12.6725 H         1 <0>         0.1334
     76 H38        -4.7869    4.9830  -10.3006 H         1 <0>         0.1337
     77 H39        -2.9179   -2.5049   -2.1687 H         1 <0>         0.3644
     78 H40        -2.1892    0.9861    1.1175 H         1 <0>         0.3709
@<TRIPOS>BOND
     1    1    2 1
     2    1   45 1
     3    1   46 1
     4    1   47 1
     5    2    3 1
     6    2    4 1
     7    2   48 1
     8    3   49 1
     9    3   50 1
    10    3   51 1
    11    4    5 1
    12    4    6 1
    13    4   44 1
    14    6    7 1
    15    6   52 1
    16    6   53 1
    17    7    8 1
    18    7    9 1
    19    7   43 1
    20    9   10 1
    21    9   11 1
    22    9   18 1
    23   11   12 1
    24   11   54 1
    25   11   55 1
    26   12   17 1
    27   12   13 1
    28   12   56 1
    29   13   14 1
    30   13   57 1
    31   13   58 1
    32   14   15 1
    33   14   59 1
    34   14   60 1
    35   15   16 1
    36   15   61 1
    37   15   62 1
    38   16   17 1
    39   16   63 1
    40   16   64 1
    41   17   65 1
    42   17   66 1
    43   18   19 am
    44   18   67 1
    45   19   20 2
    46   19   21 1
    47   21   22 1
    48   21   23 1
    49   21   30 1
    50   23   68 1
    51   23   69 1
    52   23   24 1
    53   24   25 2
    54   24   29 1
    55   25   26 1
    56   25   70 1
    57   26   28 2
    58   27   29 1
    59   28   71 1
    60   28   29 1
    61   30   31 am
    62   30   72 1
    63   31   32 2
    64   31   33 1
    65   33   42 2
    66   33   34 1
    67   34   35 1
    68   34   36 1
    69   36   41 ar
    70   36   37 ar
    71   37   38 ar
    72   37   73 1
    73   38   39 ar
    74   38   74 1
    75   39   40 ar
    76   39   75 1
    77   40   41 ar
    78   40   76 1
    79   41   42 1
    80   43   77 1
    81   44   78 1
@<TRIPOS>MOLECULE
CHEMBL500205
   82    86     0     0     0
SMALL
USER_CHARGES

@<TRIPOS>ATOM
      1 C1         -0.3552    1.0338    0.3805 C.3       1 <0>         0.0270
      2 N1         -0.2342   -0.4247    0.2545 N.3       1 <0>        -0.5246
      3 C2         -1.5559   -1.0620    0.2302 C.3       1 <0>         0.0228
      4 C3         -1.4296   -2.5718    0.0973 C.3       1 <0>         0.0878
      5 H1         -2.4193   -3.0071    0.2353 H         1 <0>         0.0901
      6 C4         -0.9238   -2.9776   -1.2806 C.3       1 <0>        -0.0594
      7 C5          0.5691   -2.8412   -1.3657 C.2       1 <0>        -0.0067
      8 C6          1.3435   -2.6353   -0.2926 C.2       1 <0>        -0.1264
      9 C7          0.7676   -2.4862    1.0922 C.3       1 <0>         0.1405
     10 H2          1.4403   -2.9231    1.8302 H         1 <0>         0.0995
     11 C8          0.5947   -0.9807    1.3365 C.3       1 <0>         0.0256
     12 N2         -0.5431   -3.1242    1.1273 N.3       1 <0>        -0.6656
     13 C9          2.7929   -2.5529   -0.4700 C.2       1 <0>         0.5709
     14 O1          3.3354   -1.4662   -0.5506 O.2       1 <0>        -0.5288
     15 N3          3.5279   -3.6802   -0.5443 N.am      1 <0>        -0.6001
     16 C10         2.8657   -4.9869   -0.5558 C.3       1 <0>         0.0813
     17 C11         4.9890   -3.5987   -0.6136 C.3       1 <0>         0.1548
     18 C12         5.5524   -3.4854    0.7795 C.ar      1 <0>        -0.0984
     19 C13         5.9230   -2.2500    1.2769 C.ar      1 <0>        -0.0820
     20 C14         6.4397   -2.1458    2.5547 C.ar      1 <0>        -0.1179
     21 C15         6.5862   -3.2770    3.3361 C.ar      1 <0>        -0.1039
     22 C16         6.2161   -4.5126    2.8399 C.ar      1 <0>        -0.1154
     23 C17         5.6934   -4.6167    1.5629 C.ar      1 <0>        -0.0215
     24 Cl1         5.2221   -6.1676    0.9414 Cl        1 <0>        -0.0687
     25 C18         1.2090   -2.9375   -2.6856 C.ar      1 <0>        -0.1060
     26 C19         1.8710   -1.8297   -3.2275 C.ar      1 <0>        -0.0468
     27 C20         2.4687   -1.9251   -4.4640 C.ar      1 <0>        -0.1510
     28 C21         2.4150   -3.1189   -5.1744 C.ar      1 <0>         0.1373
     29 C22         1.7587   -4.2221   -4.6406 C.ar      1 <0>        -0.2113
     30 C23         1.1632   -4.1390   -3.4022 C.ar      1 <0>        -0.0623
     31 O2          3.0051   -3.2075   -6.3936 O.3       1 <0>        -0.3117
     32 C24         2.9124   -4.4632   -7.0695 C.3       1 <0>         0.0642
     33 C25         3.6308   -4.3712   -8.4172 C.3       1 <0>        -0.1195
     34 C26         3.5315   -5.7156   -9.1408 C.3       1 <0>         0.0688
     35 O3          4.2025   -5.6296  -10.3996 O.3       1 <0>        -0.3833
     36 C27         4.1688   -6.8391  -11.1599 C.3       1 <0>         0.1171
     37 C28         4.9022   -6.6354  -12.4606 C.ar      1 <0>        -0.1230
     38 C29         5.4792   -5.4126  -12.7448 C.ar      1 <0>        -0.0589
     39 C30         6.1516   -5.2249  -13.9380 C.ar      1 <0>        -0.1573
     40 C31         6.2490   -6.2600  -14.8498 C.ar      1 <0>        -0.0801
     41 C32         5.6743   -7.4845  -14.5702 C.ar      1 <0>        -0.2078
     42 C33         5.0033   -7.6770  -13.3710 C.ar      1 <0>         0.1303
     43 O4          4.4418   -8.8825  -13.0911 O.3       1 <0>        -0.3182
     44 C34         4.5855   -9.9092  -14.0747 C.3       1 <0>         0.0269
     45 H3          0.6388    1.4806    0.4005 H         1 <0>         0.0709
     46 H4         -0.9133    1.4269   -0.4693 H         1 <0>         0.0691
     47 H5         -0.8811    1.2763    1.3040 H         1 <0>         0.0227
     48 H6         -2.0839   -0.8268    1.1543 H         1 <0>         0.0329
     49 H7         -2.1248   -0.6745   -0.6149 H         1 <0>         0.0830
     50 H8         -1.2003   -4.0144   -1.4726 H         1 <0>         0.0836
     51 H9         -1.3854   -2.3393   -2.0339 H         1 <0>         0.0817
     52 H10         1.5656   -0.4854    1.3492 H         1 <0>         0.0890
     53 H11         0.0946   -0.8386    2.2945 H         1 <0>         0.0342
     54 H12        -0.9495   -3.0247    2.0455 H         1 <0>         0.3453
     55 H13         1.9225   -4.9115   -1.0969 H         1 <0>         0.0728
     56 H14         3.5094   -5.7161   -1.0477 H         1 <0>         0.0693
     57 H15         2.6725   -5.3053    0.4686 H         1 <0>         0.0572
     58 H16         5.3806   -4.4964   -1.0919 H         1 <0>         0.0900
     59 H17         5.2769   -2.7225   -1.1944 H         1 <0>         0.0939
     60 H18         5.8091   -1.3661    0.6669 H         1 <0>         0.1363
     61 H19         6.7295   -1.1805    2.9427 H         1 <0>         0.1291
     62 H20         6.9904   -3.1951    4.3342 H         1 <0>         0.1314
     63 H21         6.3309   -5.3962    3.4503 H         1 <0>         0.1328
     64 H22         1.9127   -0.9017   -2.6768 H         1 <0>         0.1348
     65 H23         2.9797   -1.0709   -4.8830 H         1 <0>         0.1302
     66 H24         1.7199   -5.1472   -5.1965 H         1 <0>         0.1273
     67 H25         0.6575   -4.9979   -2.9865 H         1 <0>         0.1247
     68 H26         3.3786   -5.2384   -6.4614 H         1 <0>         0.0647
     69 H27         1.8636   -4.7112   -7.2330 H         1 <0>         0.0651
     70 H28         3.1646   -3.5959   -9.0253 H         1 <0>         0.0842
     71 H29         4.6795   -4.1231   -8.2537 H         1 <0>         0.0841
     72 H30         3.9977   -6.4908   -8.5328 H         1 <0>         0.0539
     73 H31         2.4828   -5.9636   -9.3043 H         1 <0>         0.0540
     74 H32         4.6482   -7.6377  -10.5937 H         1 <0>         0.0639
     75 H33         3.1333   -7.1105  -11.3653 H         1 <0>         0.0640
     76 H34         5.4045   -4.6026  -12.0344 H         1 <0>         0.1396
     77 H35         6.6013   -4.2681  -14.1587 H         1 <0>         0.1258
     78 H36         6.7745   -6.1108  -15.7814 H         1 <0>         0.1256
     79 H37         5.7506   -8.2926  -15.2826 H         1 <0>         0.1297
     80 H38         4.1289   -9.5833  -15.0093 H         1 <0>         0.0566
     81 H39         5.6443  -10.1101  -14.2382 H         1 <0>         0.0566
     82 H40         4.0929  -10.8171  -13.7268 H         1 <0>         0.1014
@<TRIPOS>BOND
     1    1    2 1
     2    1   45 1
     3    1   46 1
     4    1   47 1
     5    2   11 1
     6    2    3 1
     7    3    4 1
     8    3   48 1
     9    3   49 1
    10    4    5 1
    11    4   12 1
    12    4    6 1
    13    6    7 1
    14    6   50 1
    15    6   51 1
    16    7    8 2
    17    7   25 1
    18    8    9 1
    19    8   13 1
    20    9   10 1
    21    9   11 1
    22    9   12 1
    23   11   52 1
    24   11   53 1
    25   12   54 1
    26   13   14 2
    27   13   15 am
    28   15   16 1
    29   15   17 1
    30   16   55 1
    31   16   56 1
    32   16   57 1
    33   17   18 1
    34   17   58 1
    35   17   59 1
    36   18   23 ar
    37   18   19 ar
    38   19   20 ar
    39   19   60 1
    40   20   21 ar
    41   20   61 1
    42   21   22 ar
    43   21   62 1
    44   22   23 ar
    45   22   63 1
    46   23   24 1
    47   25   30 ar
    48   25   26 ar
    49   26   27 ar
    50   26   64 1
    51   27   28 ar
    52   27   65 1
    53   28   29 ar
    54   28   31 1
    55   29   30 ar
    56   29   66 1
    57   30   67 1
    58   31   32 1
    59   32   33 1
    60   32   68 1
    61   32   69 1
    62   33   34 1
    63   33   70 1
    64   33   71 1
    65   34   35 1
    66   34   72 1
    67   34   73 1
    68   35   36 1
    69   36   37 1
    70   36   74 1
    71   36   75 1
    72   37   42 ar
    73   37   38 ar
    74   38   39 ar
    75   38   76 1
    76   39   40 ar
    77   39   77 1
    78   40   41 ar
    79   40   78 1
    80   41   42 ar
    81   41   79 1
    82   42   43 1
    83   43   44 1
    84   44   80 1
    85   44   81 1
    86   44   82 1
@<TRIPOS>MOLECULE
CHEMBL500205__1
   83    87     0     0     0
SMALL
USER_CHARGES

@<TRIPOS>ATOM
      1 C1         -0.3793    1.0525    0.3843 C.3       1 <0>        -0.0476
      2 N1         -0.2542   -0.4061    0.2620 N.4       1 <0>        -0.3829
      3 C2         -1.5902   -1.0109    0.2372 C.3       1 <0>        -0.0436
      4 C3         -1.5029   -2.5276    0.1681 C.3       1 <0>         0.0658
      5 H1         -2.5087   -2.9307    0.2857 H         1 <0>         0.1364
      6 C4         -0.9570   -3.0010   -1.1727 C.3       1 <0>        -0.0930
      7 C5          0.5410   -2.9042   -1.2062 C.2       1 <0>         0.0040
      8 C6          1.2802   -2.6714   -0.1139 C.2       1 <0>        -0.1914
      9 C7          0.6560   -2.4491    1.2402 C.3       1 <0>         0.1309
     10 H2          1.2874   -2.8669    2.0244 H         1 <0>         0.1430
     11 C8          0.5015   -0.9313    1.4100 C.3       1 <0>        -0.0416
     12 N2         -0.6687   -3.0608    1.2512 N.3       1 <0>        -0.6541
     13 C9          2.7370   -2.6321   -0.2384 C.2       1 <0>         0.5675
     14 O1          3.3102   -1.5634   -0.3434 O.2       1 <0>        -0.5357
     15 N3          3.4446   -3.7791   -0.2369 N.am      1 <0>        -0.5852
     16 C10         2.7496   -5.0686   -0.2191 C.3       1 <0>         0.0746
     17 C11         4.9089   -3.7364   -0.2530 C.3       1 <0>         0.1531
     18 C12         5.4223   -3.5771    1.1549 C.ar      1 <0>        -0.1056
     19 C13         5.8060   -2.3309    1.6140 C.ar      1 <0>        -0.0842
     20 C14         6.2769   -2.1847    2.9052 C.ar      1 <0>        -0.1178
     21 C15         6.3645   -3.2845    3.7385 C.ar      1 <0>        -0.0983
     22 C16         5.9812   -4.5308    3.2807 C.ar      1 <0>        -0.1125
     23 C17         5.5044   -4.6769    1.9899 C.ar      1 <0>        -0.0220
     24 Cl1         5.0166   -6.2411    1.4162 Cl        1 <0>        -0.0654
     25 C18         1.2269   -3.0730   -2.4954 C.ar      1 <0>        -0.1441
     26 C19         1.9368   -2.0060   -3.0581 C.ar      1 <0>        -0.0515
     27 C20         2.5774   -2.1692   -4.2656 C.ar      1 <0>        -0.1480
     28 C21         2.5197   -3.3911   -4.9262 C.ar      1 <0>         0.1587
     29 C22         1.8159   -4.4540   -4.3716 C.ar      1 <0>        -0.2078
     30 C23         1.1771   -4.3030   -3.1616 C.ar      1 <0>        -0.0466
     31 O2          3.1522   -3.5467   -6.1171 O.3       1 <0>        -0.3060
     32 C24         3.0526   -4.8279   -6.7421 C.3       1 <0>         0.0623
     33 C25         3.8228   -4.8117   -8.0640 C.3       1 <0>        -0.1206
     34 C26         3.7161   -6.1835   -8.7332 C.3       1 <0>         0.0686
     35 O3          4.4354   -6.1684   -9.9679 O.3       1 <0>        -0.3827
     36 C27         4.3991   -7.4086  -10.6769 C.3       1 <0>         0.1185
     37 C28         5.1853   -7.2791  -11.9561 C.ar      1 <0>        -0.1259
     38 C29         5.8036   -6.0839  -12.2697 C.ar      1 <0>        -0.0597
     39 C30         6.5245   -5.9644  -13.4432 C.ar      1 <0>        -0.1573
     40 C31         6.6292   -7.0402  -14.3058 C.ar      1 <0>        -0.0780
     41 C32         6.0133   -8.2372  -13.9966 C.ar      1 <0>        -0.2067
     42 C33         5.2935   -8.3614  -12.8169 C.ar      1 <0>         0.1312
     43 O4          4.6914   -9.5398  -12.5077 O.3       1 <0>        -0.3190
     44 C34         4.8452  -10.6113  -13.4406 C.3       1 <0>         0.0263
     45 H3          0.6135    1.5021    0.4022 H         1 <0>         0.1266
     46 H4         -0.9391    1.4417   -0.4661 H         1 <0>         0.1250
     47 H5         -0.9051    1.2959    1.3075 H         1 <0>         0.1226
     48 H6         -2.1293   -0.7244    1.1402 H         1 <0>         0.1338
     49 H7         -2.1329   -0.6438   -0.6339 H         1 <0>         0.1392
     50 H8         -1.2527   -4.0377   -1.3340 H         1 <0>         0.1197
     51 H9         -1.3738   -2.3827   -1.9677 H         1 <0>         0.1006
     52 H10         1.4809   -0.4551    1.4556 H         1 <0>         0.1444
     53 H11        -0.0467   -0.7375    2.3319 H         1 <0>         0.1351
     54 H12        -1.1068   -2.9182    2.1488 H         1 <0>         0.3665
     55 H13         1.8297   -4.9935   -0.7989 H         1 <0>         0.0716
     56 H14         3.3922   -5.8337   -0.6547 H         1 <0>         0.0777
     57 H15         2.5098   -5.3380    0.8095 H         1 <0>         0.0633
     58 H16         5.2948   -4.6631   -0.6778 H         1 <0>         0.0957
     59 H17         5.2412   -2.8931   -0.8585 H         1 <0>         0.0980
     60 H18         5.7381   -1.4715    0.9635 H         1 <0>         0.1352
     61 H19         6.5768   -1.2109    3.2634 H         1 <0>         0.1310
     62 H20         6.7328   -3.1697    4.7472 H         1 <0>         0.1349
     63 H21         6.0500   -5.3899    3.9315 H         1 <0>         0.1360
     64 H22         1.9817   -1.0562   -2.5460 H         1 <0>         0.1260
     65 H23         3.1254   -1.3466   -4.7007 H         1 <0>         0.1375
     66 H24         1.7741   -5.4012   -4.8888 H         1 <0>         0.1356
     67 H25         0.6344   -5.1307   -2.7294 H         1 <0>         0.1295
     68 H26         3.4759   -5.5870   -6.0843 H         1 <0>         0.0685
     69 H27         2.0047   -5.0576   -6.9349 H         1 <0>         0.0689
     70 H28         3.3995   -4.0526   -8.7219 H         1 <0>         0.0860
     71 H29         4.8707   -4.5820   -7.8712 H         1 <0>         0.0860
     72 H30         4.1393   -6.9426   -8.0754 H         1 <0>         0.0540
     73 H31         2.6681   -6.4132   -8.9261 H         1 <0>         0.0540
     74 H32         4.8365   -8.1931  -10.0594 H         1 <0>         0.0642
     75 H33         3.3653   -7.6637  -10.9101 H         1 <0>         0.0642
     76 H34         5.7233   -5.2423  -11.5976 H         1 <0>         0.1382
     77 H35         7.0065   -5.0291  -13.6868 H         1 <0>         0.1261
     78 H36         7.1927   -6.9442  -15.2221 H         1 <0>         0.1268
     79 H37         6.0953   -9.0771  -14.6706 H         1 <0>         0.1309
     80 H38         4.4322  -10.3155  -14.4050 H         1 <0>         0.0574
     81 H39         5.9038  -10.8445  -13.5548 H         1 <0>         0.0575
     82 H40         4.3168  -11.4912  -13.0737 H         1 <0>         0.1020
     83 H41         0.2327   -0.6313   -0.5925 H         1 <0>         0.4239
@<TRIPOS>BOND
     1    1    2 1
     2    1   45 1
     3    1   46 1
     4    1   47 1
     5    2   11 1
     6    2    3 1
     7    2   83 1
     8    3    4 1
     9    3   48 1
    10    3   49 1
    11    4    5 1
    12    4   12 1
    13    4    6 1
    14    6    7 1
    15    6   50 1
    16    6   51 1
    17    7    8 2
    18    7   25 1
    19    8    9 1
    20    8   13 1
    21    9   10 1
    22    9   11 1
    23    9   12 1
    24   11   52 1
    25   11   53 1
    26   12   54 1
    27   13   14 2
    28   13   15 am
    29   15   16 1
    30   15   17 1
    31   16   55 1
    32   16   56 1
    33   16   57 1
    34   17   18 1
    35   17   58 1
    36   17   59 1
    37   18   23 ar
    38   18   19 ar
    39   19   20 ar
    40   19   60 1
    41   20   21 ar
    42   20   61 1
    43   21   22 ar
    44   21   62 1
    45   22   23 ar
    46   22   63 1
    47   23   24 1
    48   25   30 ar
    49   25   26 ar
    50   26   27 ar
    51   26   64 1
    52   27   28 ar
    53   27   65 1
    54   28   29 ar
    55   28   31 1
    56   29   30 ar
    57   29   66 1
    58   30   67 1
    59   31   32 1
    60   32   33 1
    61   32   68 1
    62   32   69 1
    63   33   34 1
    64   33   70 1
    65   33   71 1
    66   34   35 1
    67   34   72 1
    68   34   73 1
    69   35   36 1
    70   36   37 1
    71   36   74 1
    72   36   75 1
    73   37   42 ar
    74   37   38 ar
    75   38   39 ar
    76   38   76 1
    77   39   40 ar
    78   39   77 1
    79   40   41 ar
    80   40   78 1
    81   41   42 ar
    82   41   79 1
    83   42   43 1
    84   43   44 1
    85   44   80 1
    86   44   81 1
    87   44   82 1
@<TRIPOS>MOLECULE
CHEMBL49592
   85    87     0     0     0
SMALL
USER_CHARGES

@<TRIPOS>ATOM
      1 C1          0.2560   -0.7650   -0.4145 C.3       1 <0>        -0.1637
      2 C2         -0.4730   -1.9035   -1.1310 C.3       1 <0>         0.0674
      3 H1         -0.1988   -2.8546   -0.6745 H         1 <0>         0.0811
      4 C3         -1.9615   -1.7000   -1.0126 C.2       1 <0>         0.5202
      5 O1         -2.6204   -1.4543   -2.0007 O.2       1 <0>        -0.4946
      6 N1         -2.5604   -1.7911    0.1913 N.am      1 <0>        -0.7253
      7 C4         -4.0197   -1.7086    0.2916 C.3       1 <0>         0.1156
      8 H2         -4.4111   -1.1484   -0.5576 H         1 <0>         0.1152
      9 C5         -4.6117   -3.1194    0.2885 C.3       1 <0>        -0.1219
     10 C6         -4.3418   -3.7828   -1.0635 C.3       1 <0>        -0.0789
     11 C7         -5.1049   -3.0359   -2.1594 C.3       1 <0>        -0.1144
     12 C8         -4.8350   -3.6993   -3.5114 C.3       1 <0>        -0.1131
     13 C9         -5.3017   -5.1557   -3.4671 C.3       1 <0>        -0.1206
     14 C10        -4.5386   -5.9026   -2.3712 C.3       1 <0>        -0.1172
     15 C11        -4.8085   -5.2392   -1.0192 C.3       1 <0>        -0.1140
     16 C12        -4.4021   -0.9978    1.5914 C.3       1 <0>         0.0672
     17 H3         -5.4879   -0.9364    1.6660 H         1 <0>         0.1118
     18 C13        -3.8101    0.4130    1.5944 C.3       1 <0>         0.0770
     19 H4         -2.7244    0.3516    1.5198 H         1 <0>         0.1011
     20 C14        -4.1926    1.1238    2.8942 C.3       1 <0>        -0.1441
     21 C15        -3.5216    2.4980    2.9405 C.3       1 <0>        -0.0944
     22 C16        -3.9894    3.2523    4.1868 C.3       1 <0>        -0.1485
     23 C17        -2.0025    2.3224    2.9909 C.3       1 <0>        -0.1493
     24 O2         -4.3233    1.1473    0.4811 O.3       1 <0>        -0.5460
     25 O3         -3.8890   -1.7321    2.7047 O.3       1 <0>        -0.5444
     26 O4         -0.1017   -1.9129   -2.5109 O.3       1 <0>        -0.3104
     27 C18         0.9549   -2.8231   -2.8223 C.3       1 <0>         0.0821
     28 H5          0.9442   -3.6493   -2.1113 H         1 <0>         0.0843
     29 C19         0.7587   -3.3669   -4.2389 C.3       1 <0>        -0.0732
     30 C20         0.8313   -2.2316   -5.2273 C.ar      1 <0>        -0.0872
     31 C21        -0.2934   -1.4728   -5.4922 C.ar      1 <0>        -0.0835
     32 C22        -0.2268   -0.4315   -6.3989 C.ar      1 <0>        -0.1202
     33 C23         0.9647   -0.1486   -7.0402 C.ar      1 <0>        -0.1182
     34 C24         2.0896   -0.9068   -6.7746 C.ar      1 <0>        -0.1227
     35 C25         2.0241   -1.9455   -5.8648 C.ar      1 <0>        -0.1112
     36 C26         2.2773   -2.1054   -2.7385 C.2       1 <0>         0.5100
     37 O5          2.3063   -0.8963   -2.6475 O.2       1 <0>        -0.5057
     38 N2          3.4278   -2.8070   -2.7647 N.am      1 <0>        -0.6214
     39 C27         3.5376   -4.2731   -2.7566 C.3       1 <0>         0.0929
     40 C28         5.0413   -4.6199   -2.7688 C.3       1 <0>        -0.1320
     41 C29         5.7000   -3.3302   -2.2119 C.3       1 <0>        -0.1340
     42 C30         4.7842   -2.2315   -2.8126 C.3       1 <0>         0.1052
     43 H6          1.3326   -0.9121   -0.5001 H         1 <0>         0.0732
     44 H7         -0.0182    0.1861   -0.8710 H         1 <0>         0.0746
     45 H8         -0.0272   -0.7578    0.6380 H         1 <0>         0.0626
     46 H9         -2.0253   -1.9113    0.9914 H         1 <0>         0.3906
     47 H10        -4.1503   -3.7087    1.0809 H         1 <0>         0.0694
     48 H11        -5.6870   -3.0625    0.4572 H         1 <0>         0.0714
     49 H12        -3.2736   -3.7499   -1.2776 H         1 <0>         0.0659
     50 H13        -6.1731   -3.0688   -1.9453 H         1 <0>         0.0510
     51 H14        -4.7724   -1.9983   -2.1910 H         1 <0>         0.0796
     52 H15        -5.3786   -3.1672   -4.2921 H         1 <0>         0.0566
     53 H16        -3.7668   -3.6664   -3.7255 H         1 <0>         0.0615
     54 H17        -6.3699   -5.1886   -3.2529 H         1 <0>         0.0584
     55 H18        -5.1094   -5.6283   -4.4303 H         1 <0>         0.0574
     56 H19        -4.8711   -6.9402   -2.3396 H         1 <0>         0.0581
     57 H20        -3.4704   -5.8697   -2.5853 H         1 <0>         0.0576
     58 H21        -4.2649   -5.7713   -0.2385 H         1 <0>         0.0564
     59 H22        -5.8767   -5.2721   -0.8050 H         1 <0>         0.0599
     60 H23        -5.2749    1.2463    2.9364 H         1 <0>         0.0653
     61 H24        -3.8609    0.5286    3.7450 H         1 <0>         0.0789
     62 H25        -3.7925    3.0648    2.0497 H         1 <0>         0.0759
     63 H26        -3.6431    2.7303    5.0787 H         1 <0>         0.0534
     64 H27        -3.5802    4.2625    4.1750 H         1 <0>         0.0546
     65 H28        -5.0783    3.3014    4.1943 H         1 <0>         0.0533
     66 H29        -1.6693    1.7850    2.1031 H         1 <0>         0.0541
     67 H30        -1.5245    3.3014    3.0239 H         1 <0>         0.0548
     68 H31        -1.7317    1.7556    3.8817 H         1 <0>         0.0528
     69 H32        -5.2857    1.2418    0.4822 H         1 <0>         0.3737
     70 H33        -2.9266   -1.8265    2.7036 H         1 <0>         0.3690
     71 H34         1.5409   -4.0927   -4.4611 H         1 <0>         0.0899
     72 H35        -0.2159   -3.8496   -4.3110 H         1 <0>         0.0938
     73 H36        -1.2242   -1.6938   -4.9912 H         1 <0>         0.1270
     74 H37        -1.1056    0.1609   -6.6064 H         1 <0>         0.1198
     75 H38         1.0166    0.6646   -7.7491 H         1 <0>         0.1183
     76 H39         3.0204   -0.6860   -7.2760 H         1 <0>         0.1171
     77 H40         2.9039   -2.5355   -5.6545 H         1 <0>         0.1115
     78 H41         3.0718   -4.6748   -1.8567 H         1 <0>         0.0683
     79 H42         3.0548   -4.6859   -3.6423 H         1 <0>         0.0711
     80 H43         5.2464   -5.4697   -2.1177 H         1 <0>         0.0843
     81 H44         5.3828   -4.8197   -3.7844 H         1 <0>         0.0791
     82 H45         5.6704   -3.3155   -1.1224 H         1 <0>         0.0765
     83 H46         6.7224   -3.2256   -2.5749 H         1 <0>         0.0857
     84 H47         5.0695   -2.0180   -3.8427 H         1 <0>         0.0683
     85 H48         4.8334   -1.3254   -2.2088 H         1 <0>         0.0787
@<TRIPOS>BOND
     1    1    2 1
     2    1   43 1
     3    1   44 1
     4    1   45 1
     5    2    3 1
     6    2    4 1
     7    2   26 1
     8    4    5 2
     9    4    6 am
    10    6    7 1
    11    6   46 1
    12    7    8 1
    13    7    9 1
    14    7   16 1
    15    9   10 1
    16    9   47 1
    17    9   48 1
    18   10   15 1
    19   10   11 1
    20   10   49 1
    21   11   12 1
    22   11   50 1
    23   11   51 1
    24   12   13 1
    25   12   52 1
    26   12   53 1
    27   13   14 1
    28   13   54 1
    29   13   55 1
    30   14   15 1
    31   14   56 1
    32   14   57 1
    33   15   58 1
    34   15   59 1
    35   16   17 1
    36   16   18 1
    37   16   25 1
    38   18   19 1
    39   18   20 1
    40   18   24 1
    41   20   21 1
    42   20   60 1
    43   20   61 1
    44   21   22 1
    45   21   23 1
    46   21   62 1
    47   22   63 1
    48   22   64 1
    49   22   65 1
    50   23   66 1
    51   23   67 1
    52   23   68 1
    53   24   69 1
    54   25   70 1
    55   26   27 1
    56   27   28 1
    57   27   29 1
    58   27   36 1
    59   29   30 1
    60   29   71 1
    61   29   72 1
    62   30   35 ar
    63   30   31 ar
    64   31   32 ar
    65   31   73 1
    66   32   33 ar
    67   32   74 1
    68   33   34 ar
    69   33   75 1
    70   34   35 ar
    71   34   76 1
    72   35   77 1
    73   36   37 2
    74   36   38 am
    75   38   42 1
    76   38   39 1
    77   39   40 1
    78   39   78 1
    79   39   79 1
    80   40   41 1
    81   40   80 1
    82   40   81 1
    83   41   42 1
    84   41   82 1
    85   41   83 1
    86   42   84 1
    87   42   85 1
@<TRIPOS>MOLECULE
CHEMBL40774
   88    89     0     0     0
SMALL
USER_CHARGES

@<TRIPOS>ATOM
      1 C1         -0.0187    1.5258    0.0104 C.3       1 <0>        -0.1408
      2 C2          0.0021   -0.0041    0.0020 C.3       1 <0>        -0.0916
      3 C3         -1.4333   -0.5336    0.0129 C.3       1 <0>        -0.1490
      4 C4          0.7182   -0.4975   -1.2568 C.3       1 <0>        -0.1189
      5 C5          2.1873   -0.0730   -1.2073 C.3       1 <0>         0.1168
      6 H1          2.2492    1.0061   -1.0668 H         1 <0>         0.1050
      7 C6          2.8736   -0.4567   -2.5198 C.3       1 <0>         0.1197
      8 H2          2.4360    0.1140   -3.3389 H         1 <0>         0.1228
      9 C7          4.3686   -0.1461   -2.4234 C.3       1 <0>        -0.1250
     10 S1          5.1563   -0.4617   -4.0267 S.3       1 <0>        -0.2346
     11 C8          6.9009   -0.0509   -3.7470 C.3       1 <0>        -0.0559
     12 C9          7.4983   -1.0271   -2.7316 C.3       1 <0>        -0.1115
     13 C10         8.9697   -0.6805   -2.4956 C.3       1 <0>        -0.1182
     14 C11         9.7363   -0.7851   -3.8156 C.3       1 <0>        -0.1224
     15 C12         9.1389    0.1912   -4.8310 C.3       1 <0>        -0.1150
     16 C13         7.6675   -0.1554   -5.0669 C.3       1 <0>        -0.0988
     17 O1          2.6918   -1.8532   -2.7619 O.3       1 <0>        -0.5373
     18 N1          2.8538   -0.7497   -0.0918 N.am      1 <0>        -0.7204
     19 C14         2.7942   -0.2240    1.1478 C.2       1 <0>         0.5137
     20 O2          2.1888    0.8092    1.3398 O.2       1 <0>        -0.5139
     21 C15         3.4797   -0.9200    2.2952 C.3       1 <0>         0.1259
     22 C16         2.8969   -2.3249    2.4611 C.3       1 <0>        -0.1622
     23 N2          3.2685   -0.1552    3.5267 N.am      1 <0>        -0.7062
     24 C17         4.1469   -0.2593    4.5436 C.2       1 <0>         0.5190
     25 O3          5.1121   -0.9862    4.4392 O.2       1 <0>        -0.5271
     26 C18         3.9296    0.5275    5.8105 C.3       1 <0>         0.1576
     27 C19         3.9153    2.0226    5.4861 C.3       1 <0>        -0.0916
     28 C20         3.5765    2.8032    6.7298 C.ar      1 <0>        -0.0672
     29 C21         2.2571    3.0860    7.0304 C.ar      1 <0>        -0.1029
     30 C22         1.9463    3.8021    8.1712 C.ar      1 <0>        -0.1110
     31 C23         2.9547    4.2349    9.0118 C.ar      1 <0>        -0.1194
     32 C24         4.2740    3.9513    8.7118 C.ar      1 <0>        -0.1095
     33 C25         4.5846    3.2316    7.5731 C.ar      1 <0>        -0.1082
     34 N3          5.0136    0.2428    6.7540 N.am      1 <0>        -0.6979
     35 C26         4.8123    0.3964    8.0778 C.2       1 <0>         0.6546
     36 O4          3.7318    0.7709    8.4887 O.2       1 <0>        -0.5461
     37 O5          5.8085    0.1348    8.9450 O.3       1 <0>        -0.3577
     38 C27         5.5250    0.3190   10.3334 C.3       1 <0>         0.1376
     39 C28         4.3710   -0.5976   10.7444 C.3       1 <0>        -0.1854
     40 C29         6.7675   -0.0245   11.1575 C.3       1 <0>        -0.1416
     41 C30         5.1332    1.7765   10.5849 C.3       1 <0>        -0.1921
     42 H3          1.0039    1.9031    0.0027 H         1 <0>         0.0702
     43 H4         -0.5459    1.8868   -0.8726 H         1 <0>         0.0418
     44 H5         -0.5289    1.8773    0.9072 H         1 <0>         0.0481
     45 H6          0.5293   -0.3651    0.8851 H         1 <0>         0.0721
     46 H7         -1.9605   -0.1726   -0.8702 H         1 <0>         0.0527
     47 H8         -1.4185   -1.6235    0.0069 H         1 <0>         0.0501
     48 H9         -1.9435   -0.1821    0.9097 H         1 <0>         0.0526
     49 H10         0.6556   -1.5845   -1.3079 H         1 <0>         0.0725
     50 H11         0.2444   -0.0644   -2.1377 H         1 <0>         0.0745
     51 H12         4.5055    0.9004   -2.1511 H         1 <0>         0.0895
     52 H13         4.8235   -0.7817   -1.6637 H         1 <0>         0.0825
     53 H14         6.9775    0.9660   -3.3619 H         1 <0>         0.0838
     54 H15         6.9522   -0.9526   -1.7912 H         1 <0>         0.0581
     55 H16         7.4217   -2.0439   -3.1167 H         1 <0>         0.0758
     56 H17         9.0463    0.3363   -2.1105 H         1 <0>         0.0615
     57 H18         9.3953   -1.3760   -1.7722 H         1 <0>         0.0666
     58 H19        10.7846   -0.5382   -3.6475 H         1 <0>         0.0647
     59 H20         9.6597   -1.8019   -4.2007 H         1 <0>         0.0646
     60 H21         9.2155    1.2080   -4.4459 H         1 <0>         0.0634
     61 H22         9.6850    0.1167   -5.7714 H         1 <0>         0.0694
     62 H23         7.5909   -1.1722   -5.4520 H         1 <0>         0.0725
     63 H24         7.2419    0.5401   -5.7903 H         1 <0>         0.0717
     64 H25         3.0577   -2.4230   -2.0715 H         1 <0>         0.3693
     65 H26         3.3380   -1.5760   -0.2454 H         1 <0>         0.3974
     66 H27         4.5480   -0.9917    2.0907 H         1 <0>         0.1157
     67 H28         3.0540   -2.8940    1.5448 H         1 <0>         0.0727
     68 H29         3.3927   -2.8283    3.2910 H         1 <0>         0.0769
     69 H30         1.8286   -2.2532    2.6656 H         1 <0>         0.0674
     70 H31         2.4966    0.4262    3.6102 H         1 <0>         0.4137
     71 H32         2.9762    0.2431    6.2558 H         1 <0>         0.1222
     72 H33         4.8977    2.3252    5.1236 H         1 <0>         0.0827
     73 H34         3.1678    2.2206    4.7179 H         1 <0>         0.0916
     74 H35         1.4693    2.7479    6.3736 H         1 <0>         0.1162
     75 H36         0.9156    4.0236    8.4056 H         1 <0>         0.1173
     76 H37         2.7119    4.7949    9.9028 H         1 <0>         0.1161
     77 H38         5.0619    4.2898    9.3683 H         1 <0>         0.1150
     78 H39         5.6150    3.0068    7.3407 H         1 <0>         0.1096
     79 H40         5.8761   -0.0561    6.4260 H         1 <0>         0.4140
     80 H41         4.6501   -1.6359   10.5652 H         1 <0>         0.0574
     81 H42         4.1548   -0.4570   11.8034 H         1 <0>         0.0685
     82 H43         3.4858   -0.3528   10.1572 H         1 <0>         0.0882
     83 H44         7.5897    0.6285   10.8648 H         1 <0>         0.0658
     84 H45         6.5513    0.1160   12.2166 H         1 <0>         0.0799
     85 H46         7.0466   -1.0628   10.9784 H         1 <0>         0.0657
     86 H47         4.2480    2.0212    9.9978 H         1 <0>         0.1022
     87 H48         4.9170    1.9170   11.6440 H         1 <0>         0.0654
     88 H49         5.9554    2.4295   10.2921 H         1 <0>         0.0569
@<TRIPOS>BOND
     1    1    2 1
     2    1   42 1
     3    1   43 1
     4    1   44 1
     5    2    3 1
     6    2    4 1
     7    2   45 1
     8    3   46 1
     9    3   47 1
    10    3   48 1
    11    4    5 1
    12    4   49 1
    13    4   50 1
    14    5    6 1
    15    5    7 1
    16    5   18 1
    17    7    8 1
    18    7    9 1
    19    7   17 1
    20    9   10 1
    21    9   51 1
    22    9   52 1
    23   10   11 1
    24   11   16 1
    25   11   12 1
    26   11   53 1
    27   12   13 1
    28   12   54 1
    29   12   55 1
    30   13   14 1
    31   13   56 1
    32   13   57 1
    33   14   15 1
    34   14   58 1
    35   14   59 1
    36   15   16 1
    37   15   60 1
    38   15   61 1
    39   16   62 1
    40   16   63 1
    41   17   64 1
    42   18   19 am
    43   18   65 1
    44   19   20 2
    45   19   21 1
    46   21   22 1
    47   21   23 1
    48   21   66 1
    49   22   67 1
    50   22   68 1
    51   22   69 1
    52   23   24 am
    53   23   70 1
    54   24   25 2
    55   24   26 1
    56   26   27 1
    57   26   34 1
    58   26   71 1
    59   27   28 1
    60   27   72 1
    61   27   73 1
    62   28   33 ar
    63   28   29 ar
    64   29   30 ar
    65   29   74 1
    66   30   31 ar
    67   30   75 1
    68   31   32 ar
    69   31   76 1
    70   32   33 ar
    71   32   77 1
    72   33   78 1
    73   34   35 am
    74   34   79 1
    75   35   36 2
    76   35   37 1
    77   37   38 1
    78   38   39 1
    79   38   40 1
    80   38   41 1
    81   39   80 1
    82   39   81 1
    83   39   82 1
    84   40   83 1
    85   40   84 1
    86   40   85 1
    87   41   86 1
    88   41   87 1
    89   41   88 1
@<TRIPOS>MOLECULE
CHEMBL40774__1
   88    89     0     0     0
SMALL
USER_CHARGES

@<TRIPOS>ATOM
      1 C1         -0.0187    1.5258    0.0104 C.3       1 <0>        -0.1411
      2 C2          0.0021   -0.0041    0.0020 C.3       1 <0>        -0.0915
      3 C3         -1.4333   -0.5336    0.0129 C.3       1 <0>        -0.1489
      4 C4          0.7182   -0.4975   -1.2568 C.3       1 <0>        -0.1188
      5 C5          2.1873   -0.0730   -1.2073 C.3       1 <0>         0.1166
      6 H1          2.2492    1.0061   -1.0668 H         1 <0>         0.1049
      7 C6          2.8736   -0.4567   -2.5198 C.3       1 <0>         0.1198
      8 H2          2.4360    0.1140   -3.3389 H         1 <0>         0.1229
      9 C7          4.3686   -0.1461   -2.4234 C.3       1 <0>        -0.1252
     10 S1          5.1563   -0.4617   -4.0267 S.3       1 <0>        -0.2345
     11 C8          6.9009   -0.0509   -3.7470 C.3       1 <0>        -0.0560
     12 C9          7.4983   -1.0271   -2.7316 C.3       1 <0>        -0.1115
     13 C10         8.9697   -0.6805   -2.4956 C.3       1 <0>        -0.1183
     14 C11         9.7363   -0.7851   -3.8156 C.3       1 <0>        -0.1222
     15 C12         9.1389    0.1912   -4.8310 C.3       1 <0>        -0.1151
     16 C13         7.6675   -0.1554   -5.0669 C.3       1 <0>        -0.0987
     17 O1          2.6918   -1.8532   -2.7619 O.3       1 <0>        -0.5373
     18 N1          2.8538   -0.7497   -0.0918 N.am      1 <0>        -0.7204
     19 C14         2.7942   -0.2240    1.1478 C.2       1 <0>         0.5133
     20 O2          2.1888    0.8092    1.3398 O.2       1 <0>        -0.5139
     21 C15         3.4797   -0.9200    2.2952 C.3       1 <0>         0.1256
     22 C16         2.8969   -2.3249    2.4611 C.3       1 <0>        -0.1615
     23 N2          3.2685   -0.1552    3.5267 N.am      1 <0>        -0.7062
     24 C17         4.1469   -0.2593    4.5436 C.2       1 <0>         0.5192
     25 O3          5.1121   -0.9862    4.4392 O.2       1 <0>        -0.5271
     26 C18         3.9296    0.5275    5.8105 C.3       1 <0>         0.1573
     27 C19         2.5914    0.1284    6.4355 C.3       1 <0>        -0.0908
     28 C20         2.3165    1.0005    7.6334 C.ar      1 <0>        -0.0681
     29 C21         2.7588    0.6151    8.8851 C.ar      1 <0>        -0.1078
     30 C22         2.5067    1.4150    9.9839 C.ar      1 <0>        -0.1094
     31 C23         1.8126    2.6007    9.8309 C.ar      1 <0>        -0.1192
     32 C24         1.3710    2.9865    8.5791 C.ar      1 <0>        -0.1112
     33 C25         1.6269    2.1887    7.4796 C.ar      1 <0>        -0.1030
     34 N3          5.0136    0.2428    6.7540 N.am      1 <0>        -0.6978
     35 C26         5.3351    1.1443    7.7029 C.2       1 <0>         0.6544
     36 O4          4.7259    2.1932    7.7758 O.2       1 <0>        -0.5460
     37 O5          6.3312    0.8827    8.5701 O.3       1 <0>        -0.3577
     38 C27         6.6181    1.8829    9.5496 C.3       1 <0>         0.1377
     39 C28         5.3765    2.1246   10.4104 C.3       1 <0>        -0.1922
     40 C29         7.7707    1.4109   10.4381 C.3       1 <0>        -0.1415
     41 C30         7.0140    3.1842    8.8489 C.3       1 <0>        -0.1855
     42 H3          1.0039    1.9031    0.0027 H         1 <0>         0.0700
     43 H4         -0.5459    1.8868   -0.8726 H         1 <0>         0.0419
     44 H5         -0.5289    1.8773    0.9072 H         1 <0>         0.0481
     45 H6          0.5293   -0.3651    0.8851 H         1 <0>         0.0721
     46 H7         -1.9605   -0.1726   -0.8702 H         1 <0>         0.0527
     47 H8         -1.4185   -1.6235    0.0069 H         1 <0>         0.0502
     48 H9         -1.9435   -0.1821    0.9097 H         1 <0>         0.0527
     49 H10         0.6556   -1.5845   -1.3079 H         1 <0>         0.0726
     50 H11         0.2444   -0.0644   -2.1377 H         1 <0>         0.0745
     51 H12         4.5055    0.9004   -2.1511 H         1 <0>         0.0894
     52 H13         4.8235   -0.7817   -1.6637 H         1 <0>         0.0825
     53 H14         6.9775    0.9660   -3.3619 H         1 <0>         0.0837
     54 H15         6.9522   -0.9526   -1.7912 H         1 <0>         0.0580
     55 H16         7.4217   -2.0439   -3.1167 H         1 <0>         0.0758
     56 H17         9.0463    0.3363   -2.1105 H         1 <0>         0.0615
     57 H18         9.3953   -1.3760   -1.7722 H         1 <0>         0.0666
     58 H19        10.7846   -0.5382   -3.6475 H         1 <0>         0.0647
     59 H20         9.6597   -1.8019   -4.2007 H         1 <0>         0.0646
     60 H21         9.2155    1.2080   -4.4459 H         1 <0>         0.0633
     61 H22         9.6850    0.1167   -5.7714 H         1 <0>         0.0694
     62 H23         7.5909   -1.1722   -5.4520 H         1 <0>         0.0725
     63 H24         7.2419    0.5401   -5.7903 H         1 <0>         0.0717
     64 H25         3.0577   -2.4230   -2.0715 H         1 <0>         0.3693
     65 H26         3.3380   -1.5760   -0.2454 H         1 <0>         0.3974
     66 H27         4.5480   -0.9917    2.0907 H         1 <0>         0.1153
     67 H28         3.0540   -2.8940    1.5448 H         1 <0>         0.0725
     68 H29         3.3927   -2.8283    3.2910 H         1 <0>         0.0772
     69 H30         1.8286   -2.2532    2.6656 H         1 <0>         0.0677
     70 H31         2.4966    0.4262    3.6102 H         1 <0>         0.4137
     71 H32         3.9194    1.5926    5.5794 H         1 <0>         0.1223
     72 H33         1.7952    0.2567    5.7023 H         1 <0>         0.0894
     73 H34         2.6330   -0.9151    6.7477 H         1 <0>         0.0838
     74 H35         3.3011   -0.3113    9.0046 H         1 <0>         0.1099
     75 H36         2.8516    1.1136   10.9619 H         1 <0>         0.1152
     76 H37         1.6150    3.2253   10.6895 H         1 <0>         0.1162
     77 H38         0.8285    3.9127    8.4597 H         1 <0>         0.1173
     78 H39         1.2852    2.4919    6.5011 H         1 <0>         0.1164
     79 H40         5.4998   -0.5945    6.6959 H         1 <0>         0.4141
     80 H41         5.0944    1.1976   10.9096 H         1 <0>         0.0571
     81 H42         5.5953    2.8875   11.1575 H         1 <0>         0.0654
     82 H43         4.5553    2.4609    9.7774 H         1 <0>         0.1023
     83 H44         8.6552    1.2387    9.8248 H         1 <0>         0.0656
     84 H45         7.9895    2.1738   11.1852 H         1 <0>         0.0799
     85 H46         7.4886    0.4839   10.9372 H         1 <0>         0.0659
     86 H47         6.1929    3.5204    8.2159 H         1 <0>         0.0882
     87 H48         7.2328    3.9471    9.5960 H         1 <0>         0.0686
     88 H49         7.8985    3.0120    8.2356 H         1 <0>         0.0573
@<TRIPOS>BOND
     1    1    2 1
     2    1   42 1
     3    1   43 1
     4    1   44 1
     5    2    3 1
     6    2    4 1
     7    2   45 1
     8    3   46 1
     9    3   47 1
    10    3   48 1
    11    4    5 1
    12    4   49 1
    13    4   50 1
    14    5    6 1
    15    5    7 1
    16    5   18 1
    17    7    8 1
    18    7    9 1
    19    7   17 1
    20    9   10 1
    21    9   51 1
    22    9   52 1
    23   10   11 1
    24   11   16 1
    25   11   12 1
    26   11   53 1
    27   12   13 1
    28   12   54 1
    29   12   55 1
    30   13   14 1
    31   13   56 1
    32   13   57 1
    33   14   15 1
    34   14   58 1
    35   14   59 1
    36   15   16 1
    37   15   60 1
    38   15   61 1
    39   16   62 1
    40   16   63 1
    41   17   64 1
    42   18   19 am
    43   18   65 1
    44   19   20 2
    45   19   21 1
    46   21   22 1
    47   21   23 1
    48   21   66 1
    49   22   67 1
    50   22   68 1
    51   22   69 1
    52   23   24 am
    53   23   70 1
    54   24   25 2
    55   24   26 1
    56   26   27 1
    57   26   34 1
    58   26   71 1
    59   27   28 1
    60   27   72 1
    61   27   73 1
    62   28   33 ar
    63   28   29 ar
    64   29   30 ar
    65   29   74 1
    66   30   31 ar
    67   30   75 1
    68   31   32 ar
    69   31   76 1
    70   32   33 ar
    71   32   77 1
    72   33   78 1
    73   34   35 am
    74   34   79 1
    75   35   36 2
    76   35   37 1
    77   37   38 1
    78   38   39 1
    79   38   40 1
    80   38   41 1
    81   39   80 1
    82   39   81 1
    83   39   82 1
    84   40   83 1
    85   40   84 1
    86   40   85 1
    87   41   86 1
    88   41   87 1
    89   41   88 1
@<TRIPOS>MOLECULE
CHEMBL40774__2
   88    89     0     0     0
SMALL
USER_CHARGES

@<TRIPOS>ATOM
      1 C1         -0.0187    1.5258    0.0104 C.3       1 <0>        -0.1400
      2 C2          0.0021   -0.0041    0.0020 C.3       1 <0>        -0.0919
      3 C3         -1.4333   -0.5336    0.0129 C.3       1 <0>        -0.1490
      4 C4          0.7182   -0.4975   -1.2568 C.3       1 <0>        -0.1195
      5 C5          2.1873   -0.0730   -1.2073 C.3       1 <0>         0.1170
      6 H1          2.2492    1.0061   -1.0668 H         1 <0>         0.1053
      7 C6          2.8736   -0.4567   -2.5198 C.3       1 <0>         0.1196
      8 H2          2.4360    0.1140   -3.3389 H         1 <0>         0.1228
      9 C7          4.3686   -0.1461   -2.4234 C.3       1 <0>        -0.1244
     10 S1          5.1563   -0.4617   -4.0267 S.3       1 <0>        -0.2346
     11 C8          6.9009   -0.0509   -3.7470 C.3       1 <0>        -0.0558
     12 C9          7.4983   -1.0271   -2.7316 C.3       1 <0>        -0.1114
     13 C10         8.9697   -0.6805   -2.4956 C.3       1 <0>        -0.1179
     14 C11         9.7363   -0.7851   -3.8156 C.3       1 <0>        -0.1225
     15 C12         9.1389    0.1912   -4.8310 C.3       1 <0>        -0.1150
     16 C13         7.6675   -0.1554   -5.0669 C.3       1 <0>        -0.0991
     17 O1          2.6918   -1.8532   -2.7619 O.3       1 <0>        -0.5374
     18 N1          2.8538   -0.7497   -0.0918 N.am      1 <0>        -0.7204
     19 C14         2.7942   -0.2240    1.1478 C.2       1 <0>         0.5135
     20 O2          2.1888    0.8092    1.3398 O.2       1 <0>        -0.5138
     21 C15         3.4797   -0.9200    2.2952 C.3       1 <0>         0.1254
     22 C16         4.9792   -1.0206    2.0081 C.3       1 <0>        -0.1606
     23 N2          3.2685   -0.1552    3.5267 N.am      1 <0>        -0.7062
     24 C17         3.3246   -0.7743    4.7225 C.2       1 <0>         0.5192
     25 O3          3.5499   -1.9647    4.7791 O.2       1 <0>        -0.5266
     26 C18         3.1074    0.0124    5.9893 C.3       1 <0>         0.1572
     27 C19         4.1645    1.1137    6.0934 C.3       1 <0>        -0.0907
     28 C20         3.8746    1.9764    7.2945 C.ar      1 <0>        -0.0682
     29 C21         3.0581    3.0847    7.1685 C.ar      1 <0>        -0.1030
     30 C22         2.7921    3.8761    8.2703 C.ar      1 <0>        -0.1110
     31 C23         3.3424    3.5589    9.4981 C.ar      1 <0>        -0.1191
     32 C24         4.1582    2.4501    9.6243 C.ar      1 <0>        -0.1095
     33 C25         4.4206    1.6563    8.5234 C.ar      1 <0>        -0.1079
     34 N3          3.2183   -0.8816    7.1446 N.am      1 <0>        -0.6979
     35 C26         2.5955   -0.5716    8.2989 C.2       1 <0>         0.6546
     36 O4          1.9419    0.4494    8.3814 O.2       1 <0>        -0.5459
     37 O5          2.6974   -1.3933    9.3605 O.3       1 <0>        -0.3577
     38 C27         2.0114   -1.0025   10.5516 C.3       1 <0>         0.1377
     39 C28         0.5133   -0.8876   10.2630 C.3       1 <0>        -0.1856
     40 C29         2.2420   -2.0520   11.6407 C.3       1 <0>        -0.1416
     41 C30         2.5445    0.3508   11.0264 C.3       1 <0>        -0.1920
     42 H3          1.0039    1.9031    0.0027 H         1 <0>         0.0700
     43 H4         -0.5459    1.8868   -0.8726 H         1 <0>         0.0419
     44 H5         -0.5289    1.8773    0.9072 H         1 <0>         0.0479
     45 H6          0.5293   -0.3651    0.8851 H         1 <0>         0.0714
     46 H7         -1.9605   -0.1726   -0.8702 H         1 <0>         0.0530
     47 H8         -1.4185   -1.6235    0.0069 H         1 <0>         0.0501
     48 H9         -1.9435   -0.1821    0.9097 H         1 <0>         0.0525
     49 H10         0.6556   -1.5845   -1.3079 H         1 <0>         0.0723
     50 H11         0.2444   -0.0644   -2.1377 H         1 <0>         0.0748
     51 H12         4.5055    0.9004   -2.1511 H         1 <0>         0.0896
     52 H13         4.8235   -0.7817   -1.6637 H         1 <0>         0.0826
     53 H14         6.9775    0.9660   -3.3619 H         1 <0>         0.0837
     54 H15         6.9522   -0.9526   -1.7912 H         1 <0>         0.0581
     55 H16         7.4217   -2.0439   -3.1167 H         1 <0>         0.0757
     56 H17         9.0463    0.3363   -2.1105 H         1 <0>         0.0614
     57 H18         9.3953   -1.3760   -1.7722 H         1 <0>         0.0662
     58 H19        10.7846   -0.5382   -3.6475 H         1 <0>         0.0647
     59 H20         9.6597   -1.8019   -4.2007 H         1 <0>         0.0646
     60 H21         9.2155    1.2080   -4.4459 H         1 <0>         0.0634
     61 H22         9.6850    0.1167   -5.7714 H         1 <0>         0.0694
     62 H23         7.5909   -1.1722   -5.4520 H         1 <0>         0.0725
     63 H24         7.2419    0.5401   -5.7903 H         1 <0>         0.0717
     64 H25         3.0577   -2.4230   -2.0715 H         1 <0>         0.3695
     65 H26         3.3380   -1.5760   -0.2454 H         1 <0>         0.3974
     66 H27         3.0645   -1.9209    2.4134 H         1 <0>         0.1169
     67 H28         5.4750   -1.5240    2.8380 H         1 <0>         0.0779
     68 H29         5.1363   -1.5897    1.0918 H         1 <0>         0.0704
     69 H30         5.3944   -0.0198    1.8899 H         1 <0>         0.0664
     70 H31         3.0884    0.7969    3.4815 H         1 <0>         0.4136
     71 H32         2.1147    0.4622    5.9720 H         1 <0>         0.1225
     72 H33         5.1506    0.6618    6.2001 H         1 <0>         0.0835
     73 H34         4.1411    1.7261    5.1920 H         1 <0>         0.0891
     74 H35         2.6282    3.3325    6.2093 H         1 <0>         0.1164
     75 H36         2.1548    4.7424    8.1718 H         1 <0>         0.1174
     76 H37         3.1352    4.1776   10.3588 H         1 <0>         0.1162
     77 H38         4.5883    2.2025   10.5835 H         1 <0>         0.1152
     78 H39         5.0550    0.7878    8.6227 H         1 <0>         0.1099
     79 H40         3.7400   -1.6967    7.0787 H         1 <0>         0.4140
     80 H41         0.1335   -1.8517    9.9247 H         1 <0>         0.0575
     81 H42        -0.0099   -0.5895   11.1715 H         1 <0>         0.0685
     82 H43         0.3490   -0.1399    9.4871 H         1 <0>         0.0882
     83 H44         3.3093   -2.1338   11.8463 H         1 <0>         0.0658
     84 H45         1.7188   -1.7539   12.5493 H         1 <0>         0.0799
     85 H46         1.8622   -3.0161   11.3025 H         1 <0>         0.0657
     86 H47         2.3803    1.0985   10.2506 H         1 <0>         0.1021
     87 H48         2.0213    0.6489   11.9350 H         1 <0>         0.0654
     88 H49         3.6118    0.2690   11.2321 H         1 <0>         0.0569
@<TRIPOS>BOND
     1    1    2 1
     2    1   42 1
     3    1   43 1
     4    1   44 1
     5    2    3 1
     6    2    4 1
     7    2   45 1
     8    3   46 1
     9    3   47 1
    10    3   48 1
    11    4    5 1
    12    4   49 1
    13    4   50 1
    14    5    6 1
    15    5    7 1
    16    5   18 1
    17    7    8 1
    18    7    9 1
    19    7   17 1
    20    9   10 1
    21    9   51 1
    22    9   52 1
    23   10   11 1
    24   11   16 1
    25   11   12 1
    26   11   53 1
    27   12   13 1
    28   12   54 1
    29   12   55 1
    30   13   14 1
    31   13   56 1
    32   13   57 1
    33   14   15 1
    34   14   58 1
    35   14   59 1
    36   15   16 1
    37   15   60 1
    38   15   61 1
    39   16   62 1
    40   16   63 1
    41   17   64 1
    42   18   19 am
    43   18   65 1
    44   19   20 2
    45   19   21 1
    46   21   22 1
    47   21   23 1
    48   21   66 1
    49   22   67 1
    50   22   68 1
    51   22   69 1
    52   23   24 am
    53   23   70 1
    54   24   25 2
    55   24   26 1
    56   26   27 1
    57   26   34 1
    58   26   71 1
    59   27   28 1
    60   27   72 1
    61   27   73 1
    62   28   33 ar
    63   28   29 ar
    64   29   30 ar
    65   29   74 1
    66   30   31 ar
    67   30   75 1
    68   31   32 ar
    69   31   76 1
    70   32   33 ar
    71   32   77 1
    72   33   78 1
    73   34   35 am
    74   34   79 1
    75   35   36 2
    76   35   37 1
    77   37   38 1
    78   38   39 1
    79   38   40 1
    80   38   41 1
    81   39   80 1
    82   39   81 1
    83   39   82 1
    84   40   83 1
    85   40   84 1
    86   40   85 1
    87   41   86 1
    88   41   87 1
    89   41   88 1
@<TRIPOS>MOLECULE
CHEMBL40774__3
   88    89     0     0     0
SMALL
USER_CHARGES

@<TRIPOS>ATOM
      1 C1         -0.0187    1.5258    0.0104 C.3       1 <0>        -0.1400
      2 C2          0.0021   -0.0041    0.0020 C.3       1 <0>        -0.0917
      3 C3         -1.4333   -0.5336    0.0129 C.3       1 <0>        -0.1489
      4 C4          0.7182   -0.4975   -1.2568 C.3       1 <0>        -0.1194
      5 C5          2.1873   -0.0730   -1.2073 C.3       1 <0>         0.1171
      6 H1          2.2492    1.0061   -1.0668 H         1 <0>         0.1053
      7 C6          2.8736   -0.4567   -2.5198 C.3       1 <0>         0.1195
      8 H2          2.4360    0.1140   -3.3389 H         1 <0>         0.1227
      9 C7          4.3686   -0.1461   -2.4234 C.3       1 <0>        -0.1245
     10 S1          5.1563   -0.4617   -4.0267 S.3       1 <0>        -0.2346
     11 C8          6.9009   -0.0509   -3.7470 C.3       1 <0>        -0.0559
     12 C9          7.4983   -1.0271   -2.7316 C.3       1 <0>        -0.1114
     13 C10         8.9697   -0.6805   -2.4956 C.3       1 <0>        -0.1180
     14 C11         9.7363   -0.7851   -3.8156 C.3       1 <0>        -0.1225
     15 C12         9.1389    0.1912   -4.8310 C.3       1 <0>        -0.1150
     16 C13         7.6675   -0.1554   -5.0669 C.3       1 <0>        -0.0990
     17 O1          2.6918   -1.8532   -2.7619 O.3       1 <0>        -0.5374
     18 N1          2.8538   -0.7497   -0.0918 N.am      1 <0>        -0.7204
     19 C14         2.7942   -0.2240    1.1478 C.2       1 <0>         0.5139
     20 O2          2.1888    0.8092    1.3398 O.2       1 <0>        -0.5138
     21 C15         3.4797   -0.9200    2.2952 C.3       1 <0>         0.1257
     22 C16         4.9792   -1.0206    2.0081 C.3       1 <0>        -0.1614
     23 N2          3.2685   -0.1552    3.5267 N.am      1 <0>        -0.7062
     24 C17         3.3246   -0.7743    4.7225 C.2       1 <0>         0.5190
     25 O3          3.5499   -1.9647    4.7791 O.2       1 <0>        -0.5266
     26 C18         3.1074    0.0124    5.9893 C.3       1 <0>         0.1577
     27 C19         1.7139    0.6438    5.9650 C.3       1 <0>        -0.0916
     28 C20         1.5424    1.5292    7.1723 C.ar      1 <0>        -0.0670
     29 C21         1.0374    1.0052    8.3476 C.ar      1 <0>        -0.1080
     30 C22         0.8801    1.8174    9.4551 C.ar      1 <0>        -0.1092
     31 C23         1.2282    3.1535    9.3874 C.ar      1 <0>        -0.1195
     32 C24         1.7341    3.6773    8.2124 C.ar      1 <0>        -0.1113
     33 C25         1.8954    2.8641    7.1062 C.ar      1 <0>        -0.1032
     34 N3          3.2183   -0.8816    7.1446 N.am      1 <0>        -0.6979
     35 C26         3.5631   -0.3861    8.3496 C.2       1 <0>         0.6547
     36 O4          3.7819    0.8023    8.4778 O.2       1 <0>        -0.5464
     37 O5          3.6650   -1.2078    9.4112 O.3       1 <0>        -0.3576
     38 C27         4.0346   -0.6145   10.6576 C.3       1 <0>         0.1377
     39 C28         2.9949    0.4372   11.0500 C.3       1 <0>        -0.1923
     40 C29         4.0990   -1.6959   11.7380 C.3       1 <0>        -0.1417
     41 C30         5.4056    0.0505   10.5193 C.3       1 <0>        -0.1853
     42 H3          1.0039    1.9031    0.0027 H         1 <0>         0.0700
     43 H4         -0.5459    1.8868   -0.8726 H         1 <0>         0.0417
     44 H5         -0.5289    1.8773    0.9072 H         1 <0>         0.0479
     45 H6          0.5293   -0.3651    0.8851 H         1 <0>         0.0718
     46 H7         -1.9605   -0.1726   -0.8702 H         1 <0>         0.0528
     47 H8         -1.4185   -1.6235    0.0069 H         1 <0>         0.0501
     48 H9         -1.9435   -0.1821    0.9097 H         1 <0>         0.0525
     49 H10         0.6556   -1.5845   -1.3079 H         1 <0>         0.0723
     50 H11         0.2444   -0.0644   -2.1377 H         1 <0>         0.0747
     51 H12         4.5055    0.9004   -2.1511 H         1 <0>         0.0896
     52 H13         4.8235   -0.7817   -1.6637 H         1 <0>         0.0826
     53 H14         6.9775    0.9660   -3.3619 H         1 <0>         0.0837
     54 H15         6.9522   -0.9526   -1.7912 H         1 <0>         0.0581
     55 H16         7.4217   -2.0439   -3.1167 H         1 <0>         0.0757
     56 H17         9.0463    0.3363   -2.1105 H         1 <0>         0.0615
     57 H18         9.3953   -1.3760   -1.7722 H         1 <0>         0.0662
     58 H19        10.7846   -0.5382   -3.6475 H         1 <0>         0.0647
     59 H20         9.6597   -1.8019   -4.2007 H         1 <0>         0.0646
     60 H21         9.2155    1.2080   -4.4459 H         1 <0>         0.0634
     61 H22         9.6850    0.1167   -5.7714 H         1 <0>         0.0694
     62 H23         7.5909   -1.1722   -5.4520 H         1 <0>         0.0725
     63 H24         7.2419    0.5401   -5.7903 H         1 <0>         0.0717
     64 H25         3.0577   -2.4230   -2.0715 H         1 <0>         0.3695
     65 H26         3.3380   -1.5760   -0.2454 H         1 <0>         0.3974
     66 H27         3.0645   -1.9209    2.4134 H         1 <0>         0.1173
     67 H28         5.4750   -1.5240    2.8380 H         1 <0>         0.0775
     68 H29         5.1363   -1.5897    1.0918 H         1 <0>         0.0705
     69 H30         5.3944   -0.0198    1.8899 H         1 <0>         0.0661
     70 H31         3.0884    0.7969    3.4815 H         1 <0>         0.4136
     71 H32         3.8605    0.7970    6.0634 H         1 <0>         0.1218
     72 H33         1.6005    1.2389    5.0589 H         1 <0>         0.0916
     73 H34         0.9587   -0.1420    5.9805 H         1 <0>         0.0832
     74 H35         0.7655   -0.0387    8.4005 H         1 <0>         0.1098
     75 H36         0.4849    1.4082   10.3731 H         1 <0>         0.1151
     76 H37         1.1047    3.7882   10.2524 H         1 <0>         0.1161
     77 H38         2.0057    4.7212    8.1594 H         1 <0>         0.1171
     78 H39         2.2941    3.2725    6.1893 H         1 <0>         0.1161
     79 H40         3.0436   -1.8303    7.0422 H         1 <0>         0.4142
     80 H41         2.0182   -0.0366   11.1486 H         1 <0>         0.0571
     81 H42         3.2768    0.8897   12.0007 H         1 <0>         0.0654
     82 H43         2.9491    1.2076   10.2804 H         1 <0>         0.1023
     83 H44         4.8397   -2.4452   11.4584 H         1 <0>         0.0657
     84 H45         4.3809   -1.2434   12.6887 H         1 <0>         0.0799
     85 H46         3.1223   -2.1697   11.8365 H         1 <0>         0.0659
     86 H47         5.3597    0.8209    9.7496 H         1 <0>         0.0881
     87 H48         5.6875    0.5030   11.4700 H         1 <0>         0.0685
     88 H49         6.1463   -0.6987   10.2397 H         1 <0>         0.0574
@<TRIPOS>BOND
     1    1    2 1
     2    1   42 1
     3    1   43 1
     4    1   44 1
     5    2    3 1
     6    2    4 1
     7    2   45 1
     8    3   46 1
     9    3   47 1
    10    3   48 1
    11    4    5 1
    12    4   49 1
    13    4   50 1
    14    5    6 1
    15    5    7 1
    16    5   18 1
    17    7    8 1
    18    7    9 1
    19    7   17 1
    20    9   10 1
    21    9   51 1
    22    9   52 1
    23   10   11 1
    24   11   16 1
    25   11   12 1
    26   11   53 1
    27   12   13 1
    28   12   54 1
    29   12   55 1
    30   13   14 1
    31   13   56 1
    32   13   57 1
    33   14   15 1
    34   14   58 1
    35   14   59 1
    36   15   16 1
    37   15   60 1
    38   15   61 1
    39   16   62 1
    40   16   63 1
    41   17   64 1
    42   18   19 am
    43   18   65 1
    44   19   20 2
    45   19   21 1
    46   21   22 1
    47   21   23 1
    48   21   66 1
    49   22   67 1
    50   22   68 1
    51   22   69 1
    52   23   24 am
    53   23   70 1
    54   24   25 2
    55   24   26 1
    56   26   27 1
    57   26   34 1
    58   26   71 1
    59   27   28 1
    60   27   72 1
    61   27   73 1
    62   28   33 ar
    63   28   29 ar
    64   29   30 ar
    65   29   74 1
    66   30   31 ar
    67   30   75 1
    68   31   32 ar
    69   31   76 1
    70   32   33 ar
    71   32   77 1
    72   33   78 1
    73   34   35 am
    74   34   79 1
    75   35   36 2
    76   35   37 1
    77   37   38 1
    78   38   39 1
    79   38   40 1
    80   38   41 1
    81   39   80 1
    82   39   81 1
    83   39   82 1
    84   40   83 1
    85   40   84 1
    86   40   85 1
    87   41   86 1
    88   41   87 1
    89   41   88 1
@<TRIPOS>MOLECULE
CHEMBL308356
   94    95     0     0     0
SMALL
USER_CHARGES

@<TRIPOS>ATOM
      1 C1          0.6758    1.6280   -1.5640 C.3       1 <0>        -0.1527
      2 C2          0.6086    0.1126   -1.3641 C.3       1 <0>         0.0836
      3 O1          1.2331   -0.5419   -2.4703 O.3       1 <0>        -0.3695
      4 C3          1.2589   -1.8879   -2.4489 C.2       1 <0>         0.6550
      5 O2          0.7647   -2.4903   -1.5165 O.2       1 <0>        -0.5410
      6 N1          1.8329   -2.5670   -3.4616 N.am      1 <0>        -0.6965
      7 C4          1.8610   -4.0316   -3.4384 C.3       1 <0>         0.1648
      8 C5          0.4289   -4.5686   -3.3981 C.3       1 <0>        -0.0976
      9 C6         -0.2806   -4.2037   -4.6766 C.ar      1 <0>        -0.0801
     10 C7         -0.9713   -3.0097   -4.7672 C.ar      1 <0>        -0.1048
     11 C8         -1.6221   -2.6750   -5.9400 C.ar      1 <0>        -0.1181
     12 C9         -1.5818   -3.5341   -7.0222 C.ar      1 <0>        -0.1209
     13 C10        -0.8904   -4.7277   -6.9318 C.ar      1 <0>        -0.1179
     14 C11        -0.2360   -5.0604   -5.7605 C.ar      1 <0>        -0.1159
     15 C12         2.6078   -4.5003   -2.2163 C.2       1 <0>         0.5014
     16 O3          2.7542   -3.7539   -1.2716 O.2       1 <0>        -0.4889
     17 N2          3.1131   -5.7491   -2.1730 N.am      1 <0>        -0.7114
     18 C13         3.8391   -6.2047   -0.9850 C.3       1 <0>         0.1289
     19 C14         5.3036   -5.7734   -1.0856 C.3       1 <0>        -0.1185
     20 C15         5.3889   -4.2461   -1.0510 C.3       1 <0>        -0.0898
     21 C16         4.9103   -3.7392    0.3109 C.3       1 <0>        -0.1397
     22 C17         6.8383   -3.8111   -1.2765 C.3       1 <0>        -0.1474
     23 C18         3.7630   -7.7071   -0.8953 C.2       1 <0>         0.5022
     24 O4          3.1615   -8.3354   -1.7405 O.2       1 <0>        -0.5014
     25 N3          4.3633   -8.3526    0.1242 N.am      1 <0>        -0.7111
     26 C19         4.2893   -9.8132    0.2114 C.3       1 <0>         0.1179
     27 H1          4.3074  -10.2384   -0.7921 H         1 <0>         0.1089
     28 C20         5.4849  -10.3377    1.0091 C.3       1 <0>        -0.1305
     29 C21         6.7786  -10.0234    0.2551 C.3       1 <0>        -0.0818
     30 C22         6.8010  -10.7981   -1.0641 C.3       1 <0>        -0.1157
     31 C23         8.0946  -10.4838   -1.8182 C.3       1 <0>        -0.1186
     32 C24         9.2956  -10.8958   -0.9644 C.3       1 <0>        -0.1207
     33 C25         9.2731  -10.1211    0.3548 C.3       1 <0>        -0.1197
     34 C26         7.9795  -10.4354    1.1089 C.3       1 <0>        -0.1147
     35 C27         2.9912  -10.2171    0.9132 C.3       1 <0>         0.0602
     36 H2          2.9511  -11.3023    1.0065 H         1 <0>         0.0604
     37 C28         1.7950   -9.7312    0.0922 C.3       1 <0>         0.1188
     38 C29         0.4997  -10.0431    0.8444 C.3       1 <0>        -0.1438
     39 C30        -0.6873   -9.4477    0.0846 C.3       1 <0>        -0.0912
     40 C31        -1.9912   -9.8645    0.7679 C.3       1 <0>        -0.1478
     41 C32        -0.5778   -7.9216    0.0825 C.3       1 <0>        -0.1441
     42 O5          1.7835  -10.3966   -1.1724 O.3       1 <0>        -0.5264
     43 O6          2.9485   -9.6253    2.2133 O.3       1 <0>        -0.5528
     44 H3          1.7182    1.9400   -1.6294 H         1 <0>         0.0658
     45 H4          0.1578    1.8964   -2.4847 H         1 <0>         0.0655
     46 H5          0.1995    2.1273   -0.7202 H         1 <0>         0.0809
     47 H6          1.1266   -0.1558   -0.4434 H         1 <0>         0.0679
     48 H7         -0.4338   -0.1993   -1.2986 H         1 <0>         0.0652
     49 H8          2.2274   -2.0861   -4.2060 H         1 <0>         0.4108
     50 H9          2.3619   -4.3996   -4.3337 H         1 <0>         0.1164
     51 H10         0.4504   -5.6531   -3.2913 H         1 <0>         0.0898
     52 H11        -0.0997   -4.1305   -2.5514 H         1 <0>         0.1049
     53 H12        -1.0027   -2.3385   -3.9217 H         1 <0>         0.1139
     54 H13        -2.1622   -1.7424   -6.0106 H         1 <0>         0.1205
     55 H14        -2.0909   -3.2729   -7.9382 H         1 <0>         0.1208
     56 H15        -0.8593   -5.3990   -7.7772 H         1 <0>         0.1221
     57 H16         0.3073   -5.9912   -5.6911 H         1 <0>         0.1232
     58 H17         2.9960   -6.3461   -2.9285 H         1 <0>         0.4081
     59 H18         3.3910   -5.7644   -0.0942 H         1 <0>         0.1147
     60 H19         5.8628   -6.1876   -0.2466 H         1 <0>         0.0726
     61 H20         5.7269   -6.1399   -2.0208 H         1 <0>         0.0695
     62 H21         4.7581   -3.8292   -1.8361 H         1 <0>         0.0764
     63 H22         5.5411   -4.1562    1.0959 H         1 <0>         0.0405
     64 H23         4.9711   -2.6512    0.3355 H         1 <0>         0.0481
     65 H24         3.8777   -4.0492    0.4715 H         1 <0>         0.0728
     66 H25         7.1793   -4.1722   -2.2468 H         1 <0>         0.0499
     67 H26         6.8991   -2.7231   -1.2519 H         1 <0>         0.0536
     68 H27         7.4691   -4.2281   -0.4915 H         1 <0>         0.0519
     69 H28         4.8444   -7.8502    0.8003 H         1 <0>         0.4002
     70 H29         5.5084   -9.8567    1.9870 H         1 <0>         0.0701
     71 H30         5.3916  -11.4161    1.1368 H         1 <0>         0.0798
     72 H31         6.8287   -8.9542    0.0494 H         1 <0>         0.0726
     73 H32         6.7509  -11.8673   -0.8585 H         1 <0>         0.0609
     74 H33         5.9454  -10.5046   -1.6724 H         1 <0>         0.0645
     75 H34         8.1106  -11.0357   -2.7580 H         1 <0>         0.0607
     76 H35         8.1447   -9.4146   -2.0238 H         1 <0>         0.0597
     77 H36         9.2454  -11.9650   -0.7587 H         1 <0>         0.0607
     78 H37        10.2172  -10.6719   -1.5016 H         1 <0>         0.0600
     79 H38        10.1287  -10.4146    0.9631 H         1 <0>         0.0610
     80 H39         9.3232   -9.0519    0.1492 H         1 <0>         0.0606
     81 H40         7.9635   -9.8835    2.0487 H         1 <0>         0.0610
     82 H41         7.9294  -11.5046    1.3145 H         1 <0>         0.0618
     83 H42         1.8745   -8.6554   -0.0640 H         1 <0>         0.1108
     84 H43         0.3761  -11.1232    0.9227 H         1 <0>         0.0580
     85 H44         0.5462   -9.6094    1.8433 H         1 <0>         0.0775
     86 H45        -0.6820   -9.8137   -0.9421 H         1 <0>         0.0746
     87 H46        -1.9965   -9.4985    1.7946 H         1 <0>         0.0523
     88 H47        -2.8368   -9.4403    0.2266 H         1 <0>         0.0538
     89 H48        -2.0692  -10.9517    0.7693 H         1 <0>         0.0515
     90 H49        -1.4234   -7.4974   -0.4588 H         1 <0>         0.0521
     91 H50        -0.5831   -7.5556    1.1092 H         1 <0>         0.0503
     92 H51         0.3511   -7.6246   -0.4043 H         1 <0>         0.0539
     93 H52         1.7146  -11.3591   -1.1098 H         1 <0>         0.3601
     94 H53         3.6786   -9.8893    2.7897 H         1 <0>         0.3749
@<TRIPOS>BOND
     1    1    2 1
     2    1   44 1
     3    1   45 1
     4    1   46 1
     5    2    3 1
     6    2   47 1
     7    2   48 1
     8    3    4 1
     9    4    5 2
    10    4    6 am
    11    6    7 1
    12    6   49 1
    13    7    8 1
    14    7   15 1
    15    7   50 1
    16    8    9 1
    17    8   51 1
    18    8   52 1
    19    9   14 ar
    20    9   10 ar
    21   10   11 ar
    22   10   53 1
    23   11   12 ar
    24   11   54 1
    25   12   13 ar
    26   12   55 1
    27   13   14 ar
    28   13   56 1
    29   14   57 1
    30   15   16 2
    31   15   17 am
    32   17   18 1
    33   17   58 1
    34   18   19 1
    35   18   23 1
    36   18   59 1
    37   19   20 1
    38   19   60 1
    39   19   61 1
    40   20   21 1
    41   20   22 1
    42   20   62 1
    43   21   63 1
    44   21   64 1
    45   21   65 1
    46   22   66 1
    47   22   67 1
    48   22   68 1
    49   23   24 2
    50   23   25 am
    51   25   26 1
    52   25   69 1
    53   26   27 1
    54   26   28 1
    55   26   35 1
    56   28   29 1
    57   28   70 1
    58   28   71 1
    59   29   34 1
    60   29   30 1
    61   29   72 1
    62   30   31 1
    63   30   73 1
    64   30   74 1
    65   31   32 1
    66   31   75 1
    67   31   76 1
    68   32   33 1
    69   32   77 1
    70   32   78 1
    71   33   34 1
    72   33   79 1
    73   33   80 1
    74   34   81 1
    75   34   82 1
    76   35   36 1
    77   35   37 1
    78   35   43 1
    79   37   38 1
    80   37   42 1
    81   37   83 1
    82   38   39 1
    83   38   84 1
    84   38   85 1
    85   39   40 1
    86   39   41 1
    87   39   86 1
    88   40   87 1
    89   40   88 1
    90   40   89 1
    91   41   90 1
    92   41   91 1
    93   41   92 1
    94   42   93 1
    95   43   94 1
@<TRIPOS>MOLECULE
CHEMBL308356__1
   94    95     0     0     0
SMALL
USER_CHARGES

@<TRIPOS>ATOM
      1 C1          0.2648    1.5613   -0.1259 C.3       1 <0>        -0.1529
      2 C2          0.2625    0.0314   -0.1426 C.3       1 <0>         0.0836
      3 O1          1.0031   -0.4337   -1.2728 O.3       1 <0>        -0.3690
      4 C3          1.0982   -1.7669   -1.4347 C.2       1 <0>         0.6554
      5 O2          0.5668   -2.5151   -0.6382 O.2       1 <0>        -0.5422
      6 N1          1.7826   -2.2717   -2.4803 N.am      1 <0>        -0.6966
      7 C4          1.8861   -3.7223   -2.6565 C.3       1 <0>         0.1648
      8 C5          0.4854   -4.3187   -2.8092 C.3       1 <0>        -0.0978
      9 C6         -0.1429   -3.8066   -4.0796 C.ar      1 <0>        -0.0812
     10 C7         -0.8867   -2.6415   -4.0620 C.ar      1 <0>        -0.1048
     11 C8         -1.4630   -2.1717   -5.2273 C.ar      1 <0>        -0.1179
     12 C9         -1.2952   -2.8668   -6.4104 C.ar      1 <0>        -0.1204
     13 C10        -0.5507   -4.0314   -6.4282 C.ar      1 <0>        -0.1178
     14 C11         0.0292   -4.4988   -5.2637 C.ar      1 <0>        -0.1162
     15 C12         2.5613   -4.3277   -1.4529 C.2       1 <0>         0.5016
     16 O3          2.5958   -3.7168   -0.4057 O.2       1 <0>        -0.4882
     17 N2          3.1270   -5.5479   -1.5402 N.am      1 <0>        -0.7127
     18 C13         3.7834   -6.1364   -0.3702 C.3       1 <0>         0.1281
     19 C14         5.2265   -5.6346   -0.2889 C.3       1 <0>        -0.1197
     20 C15         5.2283   -4.1254   -0.0376 C.3       1 <0>        -0.0898
     21 C16         4.6213   -3.8364    1.3368 C.3       1 <0>        -0.1401
     22 C17         6.6657   -3.6030   -0.0803 C.3       1 <0>        -0.1479
     23 C18         3.7800   -7.6382   -0.4947 C.2       1 <0>         0.5057
     24 O4          3.2787   -8.1651   -1.4652 O.2       1 <0>        -0.5166
     25 N3          4.3342   -8.3958    0.4725 N.am      1 <0>        -0.7230
     26 C19         4.3309   -9.8558    0.3515 C.3       1 <0>         0.1163
     27 H1          4.4477  -10.1338   -0.6960 H         1 <0>         0.1126
     28 C20         5.4882  -10.4377    1.1657 C.3       1 <0>        -0.1262
     29 C21         6.8175   -9.9842    0.5587 C.3       1 <0>        -0.0819
     30 C22         6.9682  -10.5804   -0.8422 C.3       1 <0>        -0.1134
     31 C23         8.2974  -10.1270   -1.4492 C.3       1 <0>        -0.1188
     32 C24         9.4511  -10.6044   -0.5649 C.3       1 <0>        -0.1207
     33 C25         9.3004  -10.0081    0.8360 C.3       1 <0>        -0.1191
     34 C26         7.9712  -10.4616    1.4430 C.3       1 <0>        -0.1149
     35 C27         3.0062  -10.4085    0.8812 C.3       1 <0>         0.0602
     36 H2          2.8894  -10.1305    1.9286 H         1 <0>         0.0589
     37 C28         3.0028  -11.9333    0.7548 C.3       1 <0>         0.1187
     38 C29         1.6331  -12.4761    1.1674 C.3       1 <0>        -0.1413
     39 C30         1.6687  -14.0057    1.1642 C.3       1 <0>        -0.0954
     40 C31         2.6227  -14.4959    2.2553 C.3       1 <0>        -0.1501
     41 C32         0.2640  -14.5491    1.4332 C.3       1 <0>        -0.1482
     42 O5          3.2719  -12.2995   -0.6000 O.3       1 <0>        -0.5541
     43 O6          1.9252   -9.8651    0.1207 O.3       1 <0>        -0.5485
     44 H3          1.2912    1.9224   -0.0613 H         1 <0>         0.0660
     45 H4         -0.1951    1.9354   -1.0405 H         1 <0>         0.0657
     46 H5         -0.3001    1.9160    0.7362 H         1 <0>         0.0811
     47 H6          0.7224   -0.3427    0.7721 H         1 <0>         0.0679
     48 H7         -0.7639   -0.3297   -0.2072 H         1 <0>         0.0654
     49 H8          2.2068   -1.6744   -3.1161 H         1 <0>         0.4112
     50 H9          2.4725   -3.9390   -3.5494 H         1 <0>         0.1173
     51 H10         0.5558   -5.4056   -2.8512 H         1 <0>         0.0899
     52 H11        -0.1285   -4.0271   -1.9570 H         1 <0>         0.1050
     53 H12        -1.0178   -2.0984   -3.1377 H         1 <0>         0.1140
     54 H13        -2.0446   -1.2618   -5.2134 H         1 <0>         0.1208
     55 H14        -1.7461   -2.5001   -7.3207 H         1 <0>         0.1212
     56 H15        -0.4199   -4.5746   -7.3524 H         1 <0>         0.1225
     57 H16         0.6140   -5.4067   -5.2783 H         1 <0>         0.1232
     58 H17         3.0994   -6.0364   -2.3777 H         1 <0>         0.4087
     59 H18         3.2462   -5.8454    0.5325 H         1 <0>         0.1171
     60 H19         5.7413   -6.1396    0.5285 H         1 <0>         0.0738
     61 H20         5.7386   -5.8473   -1.2273 H         1 <0>         0.0708
     62 H21         4.6380   -3.6282   -0.8073 H         1 <0>         0.0767
     63 H22         5.2116   -4.3336    2.1065 H         1 <0>         0.0409
     64 H23         4.6226   -2.7612    1.5158 H         1 <0>         0.0490
     65 H24         3.5973   -4.2086    1.3672 H         1 <0>         0.0721
     66 H25         7.0982   -3.8088   -1.0595 H         1 <0>         0.0504
     67 H26         6.6670   -2.5278    0.0987 H         1 <0>         0.0542
     68 H27         7.2560   -4.1001    0.6894 H         1 <0>         0.0524
     69 H28         4.7352   -7.9744    1.2487 H         1 <0>         0.4018
     70 H29         5.4205  -10.0867    2.1954 H         1 <0>         0.0682
     71 H30         5.4335  -11.5261    1.1484 H         1 <0>         0.0866
     72 H31         6.8351   -8.8962    0.4944 H         1 <0>         0.0692
     73 H32         6.9505  -11.6684   -0.7779 H         1 <0>         0.0640
     74 H33         6.1463  -10.2403   -1.4722 H         1 <0>         0.0629
     75 H34         8.4048  -10.5518   -2.4473 H         1 <0>         0.0604
     76 H35         8.3151   -9.0390   -1.5136 H         1 <0>         0.0580
     77 H36         9.4334  -11.6923   -0.5006 H         1 <0>         0.0613
     78 H37        10.3981  -10.2813   -0.9974 H         1 <0>         0.0594
     79 H38        10.1223  -10.3482    1.4660 H         1 <0>         0.0608
     80 H39         9.3181   -8.9201    0.7717 H         1 <0>         0.0598
     81 H40         7.8638  -10.0368    2.4411 H         1 <0>         0.0603
     82 H41         7.9535  -11.5495    1.5073 H         1 <0>         0.0629
     83 H42         3.7708  -12.3534    1.4042 H         1 <0>         0.1108
     84 H43         1.3877  -12.1204    2.1680 H         1 <0>         0.0668
     85 H44         0.8774  -12.1288    0.4628 H         1 <0>         0.0752
     86 H45         2.0152  -14.3591    0.1931 H         1 <0>         0.0772
     87 H46         2.2762  -14.1425    3.2265 H         1 <0>         0.0524
     88 H47         2.6481  -15.5856    2.2531 H         1 <0>         0.0547
     89 H48         3.6235  -14.1087    2.0637 H         1 <0>         0.0544
     90 H49         0.2905  -15.6388    1.4371 H         1 <0>         0.0543
     91 H50        -0.0850  -14.1907    2.4016 H         1 <0>         0.0523
     92 H51        -0.4144  -14.2050    0.6525 H         1 <0>         0.0537
     93 H52         2.6270  -11.9591   -1.2350 H         1 <0>         0.3826
     94 H53         1.8661   -8.9005    0.1550 H         1 <0>         0.3737
@<TRIPOS>BOND
     1    1    2 1
     2    1   44 1
     3    1   45 1
     4    1   46 1
     5    2    3 1
     6    2   47 1
     7    2   48 1
     8    3    4 1
     9    4    5 2
    10    4    6 am
    11    6    7 1
    12    6   49 1
    13    7    8 1
    14    7   15 1
    15    7   50 1
    16    8    9 1
    17    8   51 1
    18    8   52 1
    19    9   14 ar
    20    9   10 ar
    21   10   11 ar
    22   10   53 1
    23   11   12 ar
    24   11   54 1
    25   12   13 ar
    26   12   55 1
    27   13   14 ar
    28   13   56 1
    29   14   57 1
    30   15   16 2
    31   15   17 am
    32   17   18 1
    33   17   58 1
    34   18   19 1
    35   18   23 1
    36   18   59 1
    37   19   20 1
    38   19   60 1
    39   19   61 1
    40   20   21 1
    41   20   22 1
    42   20   62 1
    43   21   63 1
    44   21   64 1
    45   21   65 1
    46   22   66 1
    47   22   67 1
    48   22   68 1
    49   23   24 2
    50   23   25 am
    51   25   26 1
    52   25   69 1
    53   26   27 1
    54   26   28 1
    55   26   35 1
    56   28   29 1
    57   28   70 1
    58   28   71 1
    59   29   34 1
    60   29   30 1
    61   29   72 1
    62   30   31 1
    63   30   73 1
    64   30   74 1
    65   31   32 1
    66   31   75 1
    67   31   76 1
    68   32   33 1
    69   32   77 1
    70   32   78 1
    71   33   34 1
    72   33   79 1
    73   33   80 1
    74   34   81 1
    75   34   82 1
    76   35   36 1
    77   35   37 1
    78   35   43 1
    79   37   38 1
    80   37   42 1
    81   37   83 1
    82   38   39 1
    83   38   84 1
    84   38   85 1
    85   39   40 1
    86   39   41 1
    87   39   86 1
    88   40   87 1
    89   40   88 1
    90   40   89 1
    91   41   90 1
    92   41   91 1
    93   41   92 1
    94   42   93 1
    95   43   94 1
@<TRIPOS>MOLECULE
CHEMBL308356__2
   94    95     0     0     0
SMALL
USER_CHARGES

@<TRIPOS>ATOM
      1 C1         -0.9954    0.3065    1.1576 C.3       1 <0>        -0.1527
      2 C2         -0.6693   -1.1028    0.6592 C.3       1 <0>         0.0829
      3 O1          0.3121   -1.0266   -0.3767 O.3       1 <0>        -0.3690
      4 C3          0.7118   -2.1886   -0.9269 C.2       1 <0>         0.6546
      5 O2          0.2402   -3.2388   -0.5380 O.2       1 <0>        -0.5420
      6 N1          1.6349   -2.1870   -1.9088 N.am      1 <0>        -0.6965
      7 C4          2.0698   -3.4514   -2.5074 C.3       1 <0>         0.1642
      8 C5          0.8666   -4.1603   -3.1324 C.3       1 <0>        -0.0983
      9 C6          0.3385   -3.3372   -4.2790 C.ar      1 <0>        -0.0813
     10 C7         -0.6305   -2.3778   -4.0524 C.ar      1 <0>        -0.1048
     11 C8         -1.1150   -1.6228   -5.1042 C.ar      1 <0>        -0.1179
     12 C9         -0.6300   -1.8269   -6.3825 C.ar      1 <0>        -0.1204
     13 C10         0.3397   -2.7857   -6.6089 C.ar      1 <0>        -0.1177
     14 C11         0.8272   -3.5377   -5.5565 C.ar      1 <0>        -0.1161
     15 C12         2.6730   -4.3303   -1.4421 C.2       1 <0>         0.5039
     16 O3          2.4214   -4.1262   -0.2734 O.2       1 <0>        -0.4993
     17 N2          3.4921   -5.3431   -1.7882 N.am      1 <0>        -0.7150
     18 C13         4.1654   -6.1279   -0.7504 C.3       1 <0>         0.1302
     19 C14         3.2687   -7.2945   -0.3309 C.3       1 <0>        -0.1205
     20 C15         3.9094   -8.0326    0.8462 C.3       1 <0>        -0.1055
     21 C16         3.9227   -7.1200    2.0741 C.3       1 <0>        -0.1528
     22 C17         3.1020   -9.2944    1.1573 C.3       1 <0>        -0.1423
     23 C18         5.4665   -6.6634   -1.2903 C.2       1 <0>         0.5033
     24 O4          5.6488   -6.7193   -2.4880 O.2       1 <0>        -0.4998
     25 N3          6.4275   -7.0800   -0.4422 N.am      1 <0>        -0.7115
     26 C19         7.7282   -7.5085   -0.9625 C.3       1 <0>         0.1160
     27 H1          7.9892   -6.9038   -1.8310 H         1 <0>         0.1079
     28 C20         8.7941   -7.3320    0.1209 C.3       1 <0>        -0.1305
     29 C21         8.9347   -5.8468    0.4608 C.3       1 <0>        -0.0829
     30 C22         9.4684   -5.0928   -0.7588 C.3       1 <0>        -0.1153
     31 C23         9.6090   -3.6077   -0.4189 C.3       1 <0>        -0.1192
     32 C24        10.5828   -3.4419    0.7495 C.3       1 <0>        -0.1204
     33 C25        10.0491   -4.1960    1.9692 C.3       1 <0>        -0.1202
     34 C26         9.9085   -5.6811    1.6292 C.3       1 <0>        -0.1143
     35 C27         7.6544   -8.9813   -1.3701 C.3       1 <0>         0.0611
     36 H2          8.6334   -9.3118   -1.7172 H         1 <0>         0.0597
     37 C28         6.6312   -9.1484   -2.4953 C.3       1 <0>         0.1183
     38 C29         6.4956  -10.6317   -2.8452 C.3       1 <0>        -0.1442
     39 C30         5.3844  -10.8117   -3.8814 C.3       1 <0>        -0.0913
     40 C31         5.3318  -12.2754   -4.3238 C.3       1 <0>        -0.1480
     41 C32         4.0416  -10.4173   -3.2630 C.3       1 <0>        -0.1459
     42 O5          7.0681   -8.4251   -3.6477 O.3       1 <0>        -0.5259
     43 O6          7.2576   -9.7677   -0.2448 O.3       1 <0>        -0.5518
     44 H3         -0.0905    0.7723    1.5479 H         1 <0>         0.0660
     45 H4         -1.3840    0.9029    0.3321 H         1 <0>         0.0658
     46 H5         -1.7439    0.2483    1.9477 H         1 <0>         0.0812
     47 H6         -0.2807   -1.6993    1.4846 H         1 <0>         0.0680
     48 H7         -1.5741   -1.5686    0.2688 H         1 <0>         0.0658
     49 H8          2.0114   -1.3486   -2.2192 H         1 <0>         0.4116
     50 H9          2.8143   -3.2515   -3.2780 H         1 <0>         0.1196
     51 H10         1.1724   -5.1402   -3.4991 H         1 <0>         0.0889
     52 H11         0.0856   -4.2808   -2.3816 H         1 <0>         0.1056
     53 H12        -1.0094   -2.2184   -3.0537 H         1 <0>         0.1142
     54 H13        -1.8726   -0.8737   -4.9272 H         1 <0>         0.1209
     55 H14        -1.0089   -1.2375   -7.2043 H         1 <0>         0.1212
     56 H15         0.7184   -2.9454   -7.6077 H         1 <0>         0.1225
     57 H16         1.5875   -4.2842   -5.7328 H         1 <0>         0.1234
     58 H17         3.6358   -5.5524   -2.7244 H         1 <0>         0.4095
     59 H18         4.3641   -5.4935    0.1134 H         1 <0>         0.1089
     60 H19         2.2922   -6.9131   -0.0325 H         1 <0>         0.0832
     61 H20         3.1499   -7.9811   -1.1691 H         1 <0>         0.0699
     62 H21         4.9316   -8.3097    0.5883 H         1 <0>         0.0823
     63 H22         2.8983   -6.9015    2.3755 H         1 <0>         0.0605
     64 H23         4.4435   -7.6184    2.8916 H         1 <0>         0.0568
     65 H24         4.4358   -6.1898    1.8299 H         1 <0>         0.0521
     66 H25         3.0925   -9.9446    0.2825 H         1 <0>         0.0544
     67 H26         3.5584   -9.8203    1.9959 H         1 <0>         0.0566
     68 H27         2.0798   -9.0173    1.4152 H         1 <0>         0.0543
     69 H28         6.2579   -7.0961    0.5128 H         1 <0>         0.4013
     70 H29         8.4992   -7.8828    1.0140 H         1 <0>         0.0700
     71 H30         9.7483   -7.7134   -0.2427 H         1 <0>         0.0805
     72 H31         7.9609   -5.4441    0.7395 H         1 <0>         0.0714
     73 H32        10.4422   -5.4955   -1.0375 H         1 <0>         0.0616
     74 H33         8.7747   -5.2109   -1.5912 H         1 <0>         0.0637
     75 H34         9.9892   -3.0704   -1.2877 H         1 <0>         0.0610
     76 H35         8.6352   -3.2049   -0.1402 H         1 <0>         0.0594
     77 H36        11.5566   -3.8446    0.4709 H         1 <0>         0.0609
     78 H37        10.6830   -2.3839    0.9917 H         1 <0>         0.0602
     79 H38        10.7429   -4.0779    2.8015 H         1 <0>         0.0615
     80 H39         9.0753   -3.7933    2.2478 H         1 <0>         0.0606
     81 H40         9.5283   -6.2183    2.4981 H         1 <0>         0.0613
     82 H41        10.8823   -6.0838    1.3505 H         1 <0>         0.0622
     83 H42         5.6656   -8.7624   -2.1686 H         1 <0>         0.1149
     84 H43         7.4375  -10.9958   -3.2556 H         1 <0>         0.0572
     85 H44         6.2487  -11.1960   -1.9460 H         1 <0>         0.0775
     86 H45         5.5867  -10.1781   -4.7450 H         1 <0>         0.0748
     87 H46         5.1294  -12.9089   -3.4602 H         1 <0>         0.0522
     88 H47         4.5401  -12.4036   -5.0620 H         1 <0>         0.0536
     89 H48         6.2884  -12.5564   -4.7644 H         1 <0>         0.0515
     90 H49         3.2500  -10.5455   -4.0012 H         1 <0>         0.0518
     91 H50         3.8392  -11.0508   -2.3995 H         1 <0>         0.0507
     92 H51         4.0791   -9.3745   -2.9479 H         1 <0>         0.0553
     93 H52         7.9229   -8.7160   -3.9939 H         1 <0>         0.3590
     94 H53         7.8617   -9.7099    0.5080 H         1 <0>         0.3745
@<TRIPOS>BOND
     1    1    2 1
     2    1   44 1
     3    1   45 1
     4    1   46 1
     5    2    3 1
     6    2   47 1
     7    2   48 1
     8    3    4 1
     9    4    5 2
    10    4    6 am
    11    6    7 1
    12    6   49 1
    13    7    8 1
    14    7   15 1
    15    7   50 1
    16    8    9 1
    17    8   51 1
    18    8   52 1
    19    9   14 ar
    20    9   10 ar
    21   10   11 ar
    22   10   53 1
    23   11   12 ar
    24   11   54 1
    25   12   13 ar
    26   12   55 1
    27   13   14 ar
    28   13   56 1
    29   14   57 1
    30   15   16 2
    31   15   17 am
    32   17   18 1
    33   17   58 1
    34   18   19 1
    35   18   23 1
    36   18   59 1
    37   19   20 1
    38   19   60 1
    39   19   61 1
    40   20   21 1
    41   20   22 1
    42   20   62 1
    43   21   63 1
    44   21   64 1
    45   21   65 1
    46   22   66 1
    47   22   67 1
    48   22   68 1
    49   23   24 2
    50   23   25 am
    51   25   26 1
    52   25   69 1
    53   26   27 1
    54   26   28 1
    55   26   35 1
    56   28   29 1
    57   28   70 1
    58   28   71 1
    59   29   34 1
    60   29   30 1
    61   29   72 1
    62   30   31 1
    63   30   73 1
    64   30   74 1
    65   31   32 1
    66   31   75 1
    67   31   76 1
    68   32   33 1
    69   32   77 1
    70   32   78 1
    71   33   34 1
    72   33   79 1
    73   33   80 1
    74   34   81 1
    75   34   82 1
    76   35   36 1
    77   35   37 1
    78   35   43 1
    79   37   38 1
    80   37   42 1
    81   37   83 1
    82   38   39 1
    83   38   84 1
    84   38   85 1
    85   39   40 1
    86   39   41 1
    87   39   86 1
    88   40   87 1
    89   40   88 1
    90   40   89 1
    91   41   90 1
    92   41   91 1
    93   41   92 1
    94   42   93 1
    95   43   94 1
@<TRIPOS>MOLECULE
CHEMBL308356__3
   94    95     0     0     0
SMALL
USER_CHARGES

@<TRIPOS>ATOM
      1 C1         -1.2896    0.1370    2.6379 C.3       1 <0>        -0.1529
      2 C2         -0.9261   -1.1242    1.8517 C.3       1 <0>         0.0829
      3 O1          0.0026   -0.7902    0.8183 O.3       1 <0>        -0.3686
      4 C3          0.4266   -1.7953    0.0291 C.2       1 <0>         0.6548
      5 O2          0.0191   -2.9252    0.2128 O.2       1 <0>        -0.5425
      6 N1          1.3029   -1.5482   -0.9646 N.am      1 <0>        -0.6967
      7 C4          1.7641   -2.6419   -1.8233 C.3       1 <0>         0.1643
      8 C5          0.5653   -3.2713   -2.5357 C.3       1 <0>        -0.0981
      9 C6         -0.0498   -2.2624   -3.4710 C.ar      1 <0>        -0.0821
     10 C7         -1.0480   -1.4196   -3.0190 C.ar      1 <0>        -0.1047
     11 C8         -1.6122   -0.4941   -3.8770 C.ar      1 <0>        -0.1177
     12 C9         -1.1778   -0.4111   -5.1867 C.ar      1 <0>        -0.1200
     13 C10        -0.1790   -1.2532   -5.6383 C.ar      1 <0>        -0.1177
     14 C11         0.3882   -2.1758   -4.7792 C.ar      1 <0>        -0.1162
     15 C12         2.4528   -3.6851   -0.9816 C.2       1 <0>         0.5042
     16 O3          2.2463   -3.7340    0.2125 O.2       1 <0>        -0.4978
     17 N2          3.2982   -4.5638   -1.5558 N.am      1 <0>        -0.7162
     18 C13         4.0514   -5.5060   -0.7245 C.3       1 <0>         0.1298
     19 C14         3.2258   -6.7776   -0.5189 C.3       1 <0>        -0.1228
     20 C15         3.9549   -7.7074    0.4531 C.3       1 <0>        -0.1037
     21 C16         3.9940   -7.0650    1.8411 C.3       1 <0>        -0.1542
     22 C17         3.2159   -9.0449    0.5307 C.3       1 <0>        -0.1463
     23 C18         5.3482   -5.8541   -1.4088 C.2       1 <0>         0.5087
     24 O4          5.4678   -5.6847   -2.6037 O.2       1 <0>        -0.5163
     25 N3          6.3749   -6.3539   -0.6929 N.am      1 <0>        -0.7235
     26 C19         7.6687   -6.5939   -1.3369 C.3       1 <0>         0.1149
     27 H1          7.8484   -5.8254   -2.0887 H         1 <0>         0.1114
     28 C20         8.7786   -6.5475   -0.2848 C.3       1 <0>        -0.1264
     29 C21         8.8716   -5.1353    0.2965 C.3       1 <0>        -0.0829
     30 C22         9.3108   -4.1610   -0.7984 C.3       1 <0>        -0.1131
     31 C23         9.4039   -2.7488   -0.2172 C.3       1 <0>        -0.1193
     32 C24        10.4265   -2.7320    0.9207 C.3       1 <0>        -0.1204
     33 C25         9.9873   -3.7063    2.0156 C.3       1 <0>        -0.1196
     34 C26         9.8942   -5.1185    1.4344 C.3       1 <0>        -0.1144
     35 C27         7.6577   -7.9696   -2.0063 C.3       1 <0>         0.0616
     36 H2          7.4780   -8.7381   -1.2545 H         1 <0>         0.0584
     37 C28         9.0089   -8.2203   -2.6790 C.3       1 <0>         0.1183
     38 C29         8.9565   -9.5392   -3.4527 C.3       1 <0>        -0.1406
     39 C30        10.3458   -9.8609   -4.0069 C.3       1 <0>        -0.0956
     40 C31        11.3048  -10.1413   -2.8481 C.3       1 <0>        -0.1502
     41 C32        10.2621  -11.0936   -4.9093 C.3       1 <0>        -0.1481
     42 O5          9.2979   -7.1501   -3.5808 O.3       1 <0>        -0.5542
     43 O6          6.6211   -8.0129   -2.9890 O.3       1 <0>        -0.5479
     44 H3         -0.3888    0.5606    3.0820 H         1 <0>         0.0661
     45 H4         -1.7410    0.8667    1.9657 H         1 <0>         0.0659
     46 H5         -1.9980   -0.1178    3.4261 H         1 <0>         0.0814
     47 H6         -0.4747   -1.8539    2.5239 H         1 <0>         0.0680
     48 H7         -1.8269   -1.5478    1.4076 H         1 <0>         0.0659
     49 H8          1.6281   -0.6462   -1.1113 H         1 <0>         0.4120
     50 H9          2.4633   -2.2526   -2.5634 H         1 <0>         0.1201
     51 H10         0.8960   -4.1401   -3.1049 H         1 <0>         0.0889
     52 H11        -0.1746   -3.5808   -1.7975 H         1 <0>         0.1058
     53 H12        -1.3873   -1.4845   -1.9958 H         1 <0>         0.1143
     54 H13        -2.3925    0.1638   -3.5241 H         1 <0>         0.1211
     55 H14        -1.6191    0.3115   -5.8572 H         1 <0>         0.1214
     56 H15         0.1601   -1.1886   -6.6617 H         1 <0>         0.1228
     57 H16         1.1711   -2.8312   -5.1311 H         1 <0>         0.1234
     58 H17         3.4079   -4.5723   -2.5196 H         1 <0>         0.4099
     59 H18         4.2621   -5.0492    0.2425 H         1 <0>         0.1117
     60 H19         2.2507   -6.5153   -0.1084 H         1 <0>         0.0874
     61 H20         3.0933   -7.2834   -1.4753 H         1 <0>         0.0727
     62 H21         4.9729   -7.8747    0.1013 H         1 <0>         0.0704
     63 H22         2.9782   -6.9631    2.2231 H         1 <0>         0.0632
     64 H23         4.5746   -7.6937    2.5162 H         1 <0>         0.0583
     65 H24         4.4571   -6.0806    1.7730 H         1 <0>         0.0539
     66 H25         3.1880   -9.5025   -0.4581 H         1 <0>         0.0554
     67 H26         3.7353   -9.7073    1.2232 H         1 <0>         0.0578
     68 H27         2.1979   -8.8776    0.8825 H         1 <0>         0.0584
     69 H28         6.2573   -6.5546    0.2488 H         1 <0>         0.4026
     70 H29         8.5525   -7.2547    0.5132 H         1 <0>         0.0682
     71 H30         9.7291   -6.8134   -0.7474 H         1 <0>         0.0874
     72 H31         7.8964   -4.8352    0.6799 H         1 <0>         0.0681
     73 H32        10.2860   -4.4611   -1.1819 H         1 <0>         0.0647
     74 H33         8.5823   -4.1730   -1.6091 H         1 <0>         0.0622
     75 H34         9.7168   -2.0547   -0.9972 H         1 <0>         0.0607
     76 H35         8.4287   -2.4488    0.1663 H         1 <0>         0.0576
     77 H36        11.4017   -3.0320    0.5373 H         1 <0>         0.0616
     78 H37        10.4928   -1.7259    1.3348 H         1 <0>         0.0596
     79 H38        10.7158   -3.6943    2.8263 H         1 <0>         0.0612
     80 H39         9.0121   -3.4062    2.3991 H         1 <0>         0.0597
     81 H40         9.5813   -5.8126    2.2144 H         1 <0>         0.0606
     82 H41        10.8694   -5.4185    1.0509 H         1 <0>         0.0633
     83 H42         9.7883   -8.2756   -1.9190 H         1 <0>         0.1105
     84 H43         8.6373  -10.3396   -2.7853 H         1 <0>         0.0667
     85 H44         8.2486   -9.4492   -4.2767 H         1 <0>         0.0752
     86 H45        10.7122   -9.0121   -4.5844 H         1 <0>         0.0771
     87 H46        10.9384  -10.9901   -2.2707 H         1 <0>         0.0525
     88 H47        12.2946  -10.3705   -3.2430 H         1 <0>         0.0547
     89 H48        11.3644   -9.2631   -2.2053 H         1 <0>         0.0543
     90 H49        11.2639  -11.3749   -5.2339 H         1 <0>         0.0544
     91 H50         9.8141  -11.9190   -4.3562 H         1 <0>         0.0523
     92 H51         9.6486  -10.8649   -5.7808 H         1 <0>         0.0535
     93 H52         8.6442   -7.0419   -4.2851 H         1 <0>         0.3825
     94 H53         5.7349   -7.8619   -2.6328 H         1 <0>         0.3739
@<TRIPOS>BOND
     1    1    2 1
     2    1   44 1
     3    1   45 1
     4    1   46 1
     5    2    3 1
     6    2   47 1
     7    2   48 1
     8    3    4 1
     9    4    5 2
    10    4    6 am
    11    6    7 1
    12    6   49 1
    13    7    8 1
    14    7   15 1
    15    7   50 1
    16    8    9 1
    17    8   51 1
    18    8   52 1
    19    9   14 ar
    20    9   10 ar
    21   10   11 ar
    22   10   53 1
    23   11   12 ar
    24   11   54 1
    25   12   13 ar
    26   12   55 1
    27   13   14 ar
    28   13   56 1
    29   14   57 1
    30   15   16 2
    31   15   17 am
    32   17   18 1
    33   17   58 1
    34   18   19 1
    35   18   23 1
    36   18   59 1
    37   19   20 1
    38   19   60 1
    39   19   61 1
    40   20   21 1
    41   20   22 1
    42   20   62 1
    43   21   63 1
    44   21   64 1
    45   21   65 1
    46   22   66 1
    47   22   67 1
    48   22   68 1
    49   23   24 2
    50   23   25 am
    51   25   26 1
    52   25   69 1
    53   26   27 1
    54   26   28 1
    55   26   35 1
    56   28   29 1
    57   28   70 1
    58   28   71 1
    59   29   34 1
    60   29   30 1
    61   29   72 1
    62   30   31 1
    63   30   73 1
    64   30   74 1
    65   31   32 1
    66   31   75 1
    67   31   76 1
    68   32   33 1
    69   32   77 1
    70   32   78 1
    71   33   34 1
    72   33   79 1
    73   33   80 1
    74   34   81 1
    75   34   82 1
    76   35   36 1
    77   35   37 1
    78   35   43 1
    79   37   38 1
    80   37   42 1
    81   37   83 1
    82   38   39 1
    83   38   84 1
    84   38   85 1
    85   39   40 1
    86   39   41 1
    87   39   86 1
    88   40   87 1
    89   40   88 1
    90   40   89 1
    91   41   90 1
    92   41   91 1
    93   41   92 1
    94   42   93 1
    95   43   94 1
@<TRIPOS>MOLECULE
CHEMBL308356__4
   94    95     0     0     0
SMALL
USER_CHARGES

@<TRIPOS>ATOM
      1 C1          1.3105    0.6827    0.6771 C.3       1 <0>        -0.1530
      2 C2          1.2102   -0.8370    0.5307 C.3       1 <0>         0.0841
      3 O1          1.7380   -1.2292   -0.7380 O.3       1 <0>        -0.3696
      4 C3          1.7236   -2.5443   -1.0259 C.2       1 <0>         0.6549
      5 O2          1.2752   -3.3374   -0.2219 O.2       1 <0>        -0.5404
      6 N1          2.2067   -2.9812   -2.2058 N.am      1 <0>        -0.6965
      7 C4          2.1910   -4.4123   -2.5191 C.3       1 <0>         0.1641
      8 C5          3.0163   -5.1712   -1.4780 C.3       1 <0>        -0.0973
      9 C6          4.4612   -4.7560   -1.5825 C.ar      1 <0>        -0.0810
     10 C7          5.3170   -5.4378   -2.4273 C.ar      1 <0>        -0.1164
     11 C8          6.6424   -5.0570   -2.5231 C.ar      1 <0>        -0.1178
     12 C9          7.1119   -3.9940   -1.7745 C.ar      1 <0>        -0.1206
     13 C10         6.2559   -3.3116   -0.9303 C.ar      1 <0>        -0.1180
     14 C11         4.9295   -3.6897   -0.8377 C.ar      1 <0>        -0.1045
     15 C12         0.7707   -4.9156   -2.4983 C.2       1 <0>         0.5014
     16 O3         -0.0862   -4.2889   -1.9119 O.2       1 <0>        -0.4892
     17 N2          0.4527   -6.0621   -3.1314 N.am      1 <0>        -0.7115
     18 C13        -0.9280   -6.5514   -3.1112 C.3       1 <0>         0.1295
     19 C14        -1.1631   -7.3624   -1.8354 C.3       1 <0>        -0.1191
     20 C15        -1.0412   -6.4442   -0.6176 C.3       1 <0>        -0.0914
     21 C16        -2.1630   -5.4044   -0.6486 C.3       1 <0>        -0.1350
     22 C17        -1.1522   -7.2762    0.6616 C.3       1 <0>        -0.1457
     23 C18        -1.1685   -7.4265   -4.3143 C.2       1 <0>         0.5021
     24 O4         -0.2745   -7.6223   -5.1102 O.2       1 <0>        -0.5023
     25 N3         -2.3769   -7.9917   -4.5057 N.am      1 <0>        -0.7109
     26 C19        -2.6107   -8.8424   -5.6753 C.3       1 <0>         0.1178
     27 H1         -1.7029   -9.3998   -5.9064 H         1 <0>         0.1089
     28 C20        -3.7476   -9.8212   -5.3749 C.3       1 <0>        -0.1304
     29 C21        -3.3255  -10.7619   -4.2445 C.3       1 <0>        -0.0820
     30 C22        -2.1568  -11.6307   -4.7137 C.3       1 <0>        -0.1155
     31 C23        -1.7346  -12.5714   -3.5833 C.3       1 <0>        -0.1188
     32 C24        -2.9136  -13.4672   -3.1981 C.3       1 <0>        -0.1207
     33 C25        -4.0823  -12.5984   -2.7289 C.3       1 <0>        -0.1198
     34 C26        -4.5045  -11.6577   -3.8593 C.3       1 <0>        -0.1146
     35 C27        -2.9920   -7.9697   -6.8727 C.3       1 <0>         0.0603
     36 H2         -3.1969   -8.6049   -7.7346 H         1 <0>         0.0605
     37 C28        -1.8371   -7.0215   -7.2011 C.3       1 <0>         0.1188
     38 C29        -2.2568   -6.0786   -8.3306 C.3       1 <0>        -0.1440
     39 C30        -1.1501   -5.0506   -8.5744 C.3       1 <0>        -0.0915
     40 C31        -1.5138   -4.1870   -9.7840 C.3       1 <0>        -0.1479
     41 C32        -0.9996   -4.1606   -7.3391 C.3       1 <0>        -0.1447
     42 O5         -0.6992   -7.7815   -7.6130 O.3       1 <0>        -0.5264
     43 O6         -4.1583   -7.2077   -6.5546 O.3       1 <0>        -0.5532
     44 H3          2.3552    0.9861    0.6087 H         1 <0>         0.0654
     45 H4          0.7399    1.1628   -0.1179 H         1 <0>         0.0659
     46 H5          0.9079    0.9819    1.6448 H         1 <0>         0.0808
     47 H6          1.7807   -1.3170    1.3257 H         1 <0>         0.0651
     48 H7          0.1655   -1.1404    0.5991 H         1 <0>         0.0678
     49 H8          2.5646   -2.3481   -2.8477 H         1 <0>         0.4110
     50 H9          2.6188   -4.5722   -3.5088 H         1 <0>         0.1175
     51 H10         2.6432   -4.9406   -0.4802 H         1 <0>         0.1057
     52 H11         2.9323   -6.2429   -1.6587 H         1 <0>         0.0875
     53 H12         4.9501   -6.2683   -3.0122 H         1 <0>         0.1228
     54 H13         7.3111   -5.5901   -3.1826 H         1 <0>         0.1223
     55 H14         8.1475   -3.6968   -1.8488 H         1 <0>         0.1210
     56 H15         6.6228   -2.4813   -0.3452 H         1 <0>         0.1206
     57 H16         4.2599   -3.1542   -0.1810 H         1 <0>         0.1143
     58 H17         1.1381   -6.5633   -3.6004 H         1 <0>         0.4082
     59 H18        -1.6139   -5.7046   -3.1350 H         1 <0>         0.1135
     60 H19        -2.1609   -7.8003   -1.8618 H         1 <0>         0.0710
     61 H20        -0.4195   -8.1566   -1.7675 H         1 <0>         0.0688
     62 H21        -0.0760   -5.9382   -0.6393 H         1 <0>         0.0863
     63 H22        -3.1282   -5.9104   -0.6269 H         1 <0>         0.0370
     64 H23        -2.0762   -4.7502    0.2189 H         1 <0>         0.0496
     65 H24        -2.0839   -4.8116   -1.5599 H         1 <0>         0.0682
     66 H25        -0.3529   -8.0171    0.6837 H         1 <0>         0.0486
     67 H26        -1.0653   -6.6221    1.5292 H         1 <0>         0.0542
     68 H27        -2.1174   -7.7823    0.6833 H         1 <0>         0.0492
     69 H28        -3.0919   -7.8351   -3.8692 H         1 <0>         0.4005
     70 H29        -4.6352   -9.2654   -5.0726 H         1 <0>         0.0700
     71 H30        -3.9708  -10.4042   -6.2684 H         1 <0>         0.0798
     72 H31        -3.0174  -10.1749   -3.3793 H         1 <0>         0.0728
     73 H32        -2.4649  -12.2178   -5.5789 H         1 <0>         0.0608
     74 H33        -1.3168  -10.9925   -4.9881 H         1 <0>         0.0644
     75 H34        -0.9020  -13.1904   -3.9175 H         1 <0>         0.0607
     76 H35        -1.4265  -11.9844   -2.7181 H         1 <0>         0.0600
     77 H36        -3.2217  -14.0542   -4.0633 H         1 <0>         0.0606
     78 H37        -2.6129  -14.1374   -2.3928 H         1 <0>         0.0601
     79 H38        -4.9223  -13.2365   -2.4545 H         1 <0>         0.0610
     80 H39        -3.7742  -12.0113   -1.8637 H         1 <0>         0.0608
     81 H40        -5.3371  -11.0387   -3.5250 H         1 <0>         0.0610
     82 H41        -4.8126  -12.2447   -4.7245 H         1 <0>         0.0617
     83 H42        -1.5833   -6.4380   -6.3161 H         1 <0>         0.1103
     84 H43        -2.4249   -6.6542   -9.2408 H         1 <0>         0.0584
     85 H44        -3.1760   -5.5636   -8.0513 H         1 <0>         0.0776
     86 H45        -0.2099   -5.5675   -8.7666 H         1 <0>         0.0750
     87 H46        -2.4540   -3.6701   -9.5918 H         1 <0>         0.0524
     88 H47        -0.7254   -3.4547   -9.9577 H         1 <0>         0.0538
     89 H48        -1.6210   -4.8211  -10.6640 H         1 <0>         0.0519
     90 H49        -0.2112   -3.4282   -7.5128 H         1 <0>         0.0517
     91 H50        -1.9398   -3.6436   -7.1470 H         1 <0>         0.0503
     92 H51        -0.7406   -4.7758   -6.4774 H         1 <0>         0.0538
     93 H52        -0.8529   -8.3261   -8.3971 H         1 <0>         0.3604
     94 H53        -4.9317   -7.7453   -6.3354 H         1 <0>         0.3752
@<TRIPOS>BOND
     1    1    2 1
     2    1   44 1
     3    1   45 1
     4    1   46 1
     5    2    3 1
     6    2   47 1
     7    2   48 1
     8    3    4 1
     9    4    5 2
    10    4    6 am
    11    6    7 1
    12    6   49 1
    13    7    8 1
    14    7   15 1
    15    7   50 1
    16    8    9 1
    17    8   51 1
    18    8   52 1
    19    9   14 ar
    20    9   10 ar
    21   10   11 ar
    22   10   53 1
    23   11   12 ar
    24   11   54 1
    25   12   13 ar
    26   12   55 1
    27   13   14 ar
    28   13   56 1
    29   14   57 1
    30   15   16 2
    31   15   17 am
    32   17   18 1
    33   17   58 1
    34   18   19 1
    35   18   23 1
    36   18   59 1
    37   19   20 1
    38   19   60 1
    39   19   61 1
    40   20   21 1
    41   20   22 1
    42   20   62 1
    43   21   63 1
    44   21   64 1
    45   21   65 1
    46   22   66 1
    47   22   67 1
    48   22   68 1
    49   23   24 2
    50   23   25 am
    51   25   26 1
    52   25   69 1
    53   26   27 1
    54   26   28 1
    55   26   35 1
    56   28   29 1
    57   28   70 1
    58   28   71 1
    59   29   34 1
    60   29   30 1
    61   29   72 1
    62   30   31 1
    63   30   73 1
    64   30   74 1
    65   31   32 1
    66   31   75 1
    67   31   76 1
    68   32   33 1
    69   32   77 1
    70   32   78 1
    71   33   34 1
    72   33   79 1
    73   33   80 1
    74   34   81 1
    75   34   82 1
    76   35   36 1
    77   35   37 1
    78   35   43 1
    79   37   38 1
    80   37   42 1
    81   37   83 1
    82   38   39 1
    83   38   84 1
    84   38   85 1
    85   39   40 1
    86   39   41 1
    87   39   86 1
    88   40   87 1
    89   40   88 1
    90   40   89 1
    91   41   90 1
    92   41   91 1
    93   41   92 1
    94   42   93 1
    95   43   94 1
@<TRIPOS>MOLECULE
CHEMBL308356__5
   94    95     0     0     0
SMALL
USER_CHARGES

@<TRIPOS>ATOM
      1 C1          0.0592    1.3090    0.2293 C.3       1 <0>        -0.1531
      2 C2          0.0083   -0.2200    0.2117 C.3       1 <0>         0.0841
      3 O1          0.7151   -0.7070   -0.9308 O.3       1 <0>        -0.3693
      4 C3          0.7654   -2.0424   -1.0950 C.2       1 <0>         0.6549
      5 O2          0.2240   -2.7743   -0.2903 O.2       1 <0>        -0.5406
      6 N1          1.4163   -2.5673   -2.1521 N.am      1 <0>        -0.6967
      7 C4          1.4710   -4.0203   -2.3308 C.3       1 <0>         0.1642
      8 C5          2.1570   -4.6575   -1.1207 C.3       1 <0>        -0.0975
      9 C6          3.5944   -4.2084   -1.0638 C.ar      1 <0>        -0.0817
     10 C7          4.5720   -4.9358   -1.7165 C.ar      1 <0>        -0.1165
     11 C8          5.8906   -4.5238   -1.6644 C.ar      1 <0>        -0.1177
     12 C9          6.2313   -3.3843   -0.9599 C.ar      1 <0>        -0.1202
     13 C10         5.2535   -2.6564   -0.3080 C.ar      1 <0>        -0.1178
     14 C11         3.9344   -3.0660   -0.3637 C.ar      1 <0>        -0.1045
     15 C12         0.0713   -4.5638   -2.4586 C.2       1 <0>         0.5015
     16 O3         -0.8705   -3.9144   -2.0558 O.2       1 <0>        -0.4885
     17 N2         -0.1340   -5.7714   -3.0206 N.am      1 <0>        -0.7128
     18 C13        -1.4948   -6.2998   -3.1449 C.3       1 <0>         0.1287
     19 C14        -1.8905   -7.0010   -1.8439 C.3       1 <0>        -0.1202
     20 C15        -1.9566   -5.9747   -0.7111 C.3       1 <0>        -0.0915
     21 C16        -3.0823   -4.9771   -0.9918 C.3       1 <0>        -0.1354
     22 C17        -2.2296   -6.6925    0.6122 C.3       1 <0>        -0.1461
     23 C18        -1.5489   -7.2856   -4.2834 C.2       1 <0>         0.5056
     24 O4         -0.5492   -7.5235   -4.9276 O.2       1 <0>        -0.5174
     25 N3         -2.7082   -7.9029   -4.5858 N.am      1 <0>        -0.7228
     26 C19        -2.7607   -8.8613   -5.6926 C.3       1 <0>         0.1161
     27 H1         -1.8195   -9.4085   -5.7444 H         1 <0>         0.1126
     28 C20        -3.9101   -9.8444   -5.4618 C.3       1 <0>        -0.1262
     29 C21        -3.6220  -10.6821   -4.2144 C.3       1 <0>        -0.0821
     30 C22        -2.3877  -11.5526   -4.4585 C.3       1 <0>        -0.1132
     31 C23        -2.0996  -12.3903   -3.2111 C.3       1 <0>        -0.1190
     32 C24        -3.3032  -13.2853   -2.9086 C.3       1 <0>        -0.1206
     33 C25        -4.5375  -12.4148   -2.6645 C.3       1 <0>        -0.1192
     34 C26        -4.8256  -11.5770   -3.9119 C.3       1 <0>        -0.1147
     35 C27        -2.9874   -8.1110   -7.0066 C.3       1 <0>         0.0604
     36 H2         -3.9287   -7.5637   -6.9548 H         1 <0>         0.0589
     37 C28        -3.0423   -9.1118   -8.1625 C.3       1 <0>         0.1185
     38 C29        -3.1439   -8.3548   -9.4882 C.3       1 <0>        -0.1411
     39 C30        -3.3277   -9.3533  -10.6329 C.3       1 <0>        -0.0955
     40 C31        -4.6789  -10.0556  -10.4850 C.3       1 <0>        -0.1502
     41 C32        -3.2825   -8.6105  -11.9697 C.3       1 <0>        -0.1482
     42 O5         -1.8564   -9.9092   -8.1589 O.3       1 <0>        -0.5539
     43 O6         -1.9139   -7.1928   -7.2221 O.3       1 <0>        -0.5486
     44 H3          1.0974    1.6375    0.2772 H         1 <0>         0.0656
     45 H4         -0.4037    1.6984   -0.6774 H         1 <0>         0.0659
     46 H5         -0.4800    1.6805    1.1008 H         1 <0>         0.0810
     47 H6          0.4712   -0.6094    1.1185 H         1 <0>         0.0653
     48 H7         -1.0299   -0.5485    0.1639 H         1 <0>         0.0679
     49 H8          1.8485   -1.9830   -2.7945 H         1 <0>         0.4114
     50 H9          2.0355   -4.2544   -3.2334 H         1 <0>         0.1184
     51 H10         1.6441   -4.3508   -0.2091 H         1 <0>         0.1058
     52 H11         2.1188   -5.7431   -1.2113 H         1 <0>         0.0876
     53 H12         4.3058   -5.8260   -2.2669 H         1 <0>         0.1228
     54 H13         6.6545   -5.0925   -2.1737 H         1 <0>         0.1225
     55 H14         7.2615   -3.0628   -0.9186 H         1 <0>         0.1212
     56 H15         5.5198   -1.7663    0.2426 H         1 <0>         0.1209
     57 H16         3.1699   -2.4953    0.1425 H         1 <0>         0.1143
     58 H17         0.6192   -6.2908   -3.3428 H         1 <0>         0.4088
     59 H18        -2.1863   -5.4802   -3.3408 H         1 <0>         0.1159
     60 H19        -2.8666   -7.4703   -1.9664 H         1 <0>         0.0723
     61 H20        -1.1491   -7.7624   -1.6015 H         1 <0>         0.0701
     62 H21        -1.0074   -5.4427   -0.6468 H         1 <0>         0.0866
     63 H22        -4.0315   -5.5091   -1.0560 H         1 <0>         0.0374
     64 H23        -3.1294   -4.2460   -0.1848 H         1 <0>         0.0505
     65 H24        -2.8878   -4.4657   -1.9345 H         1 <0>         0.0676
     66 H25        -1.4276   -7.4032    0.8121 H         1 <0>         0.0491
     67 H26        -2.2767   -5.9614    1.4192 H         1 <0>         0.0549
     68 H27        -3.1788   -7.2245    0.5479 H         1 <0>         0.0497
     69 H28        -3.5077   -7.7127   -4.0706 H         1 <0>         0.4020
     70 H29        -4.8388   -9.2911   -5.3215 H         1 <0>         0.0681
     71 H30        -4.0056  -10.5012   -6.3265 H         1 <0>         0.0865
     72 H31        -3.4387  -10.0212   -3.3673 H         1 <0>         0.0694
     73 H32        -2.5711  -12.2135   -5.3057 H         1 <0>         0.0639
     74 H33        -1.5303  -10.9150   -4.6740 H         1 <0>         0.0628
     75 H34        -1.2203  -13.0105   -3.3850 H         1 <0>         0.0604
     76 H35        -1.9163  -11.7294   -2.3639 H         1 <0>         0.0583
     77 H36        -3.4865  -13.9462   -3.7558 H         1 <0>         0.0612
     78 H37        -3.0979  -13.8821   -2.0199 H         1 <0>         0.0595
     79 H38        -5.3949  -13.0523   -2.4490 H         1 <0>         0.0608
     80 H39        -4.3542  -11.7538   -1.8173 H         1 <0>         0.0600
     81 H40        -5.7049  -10.9569   -3.7380 H         1 <0>         0.0603
     82 H41        -5.0089  -12.2380   -4.7591 H         1 <0>         0.0628
     83 H42        -3.9136   -9.7560   -8.0443 H         1 <0>         0.1110
     84 H43        -3.9978   -7.6782   -9.4557 H         1 <0>         0.0667
     85 H44        -2.2314   -7.7809   -9.6497 H         1 <0>         0.0750
     86 H45        -2.5281  -10.0934  -10.6013 H         1 <0>         0.0773
     87 H46        -5.4784   -9.3155  -10.5166 H         1 <0>         0.0524
     88 H47        -4.8098  -10.7669  -11.3005 H         1 <0>         0.0548
     89 H48        -4.7110  -10.5848   -9.5326 H         1 <0>         0.0545
     90 H49        -3.4197   -9.3210  -12.7849 H         1 <0>         0.0544
     91 H50        -4.0782   -7.8661  -11.9988 H         1 <0>         0.0523
     92 H51        -2.3176   -8.1153  -12.0778 H         1 <0>         0.0536
     93 H52        -1.0402   -9.4006   -8.2604 H         1 <0>         0.3825
     94 H53        -1.8194   -6.5278   -6.5265 H         1 <0>         0.3732
@<TRIPOS>BOND
     1    1    2 1
     2    1   44 1
     3    1   45 1
     4    1   46 1
     5    2    3 1
     6    2   47 1
     7    2   48 1
     8    3    4 1
     9    4    5 2
    10    4    6 am
    11    6    7 1
    12    6   49 1
    13    7    8 1
    14    7   15 1
    15    7   50 1
    16    8    9 1
    17    8   51 1
    18    8   52 1
    19    9   14 ar
    20    9   10 ar
    21   10   11 ar
    22   10   53 1
    23   11   12 ar
    24   11   54 1
    25   12   13 ar
    26   12   55 1
    27   13   14 ar
    28   13   56 1
    29   14   57 1
    30   15   16 2
    31   15   17 am
    32   17   18 1
    33   17   58 1
    34   18   19 1
    35   18   23 1
    36   18   59 1
    37   19   20 1
    38   19   60 1
    39   19   61 1
    40   20   21 1
    41   20   22 1
    42   20   62 1
    43   21   63 1
    44   21   64 1
    45   21   65 1
    46   22   66 1
    47   22   67 1
    48   22   68 1
    49   23   24 2
    50   23   25 am
    51   25   26 1
    52   25   69 1
    53   26   27 1
    54   26   28 1
    55   26   35 1
    56   28   29 1
    57   28   70 1
    58   28   71 1
    59   29   34 1
    60   29   30 1
    61   29   72 1
    62   30   31 1
    63   30   73 1
    64   30   74 1
    65   31   32 1
    66   31   75 1
    67   31   76 1
    68   32   33 1
    69   32   77 1
    70   32   78 1
    71   33   34 1
    72   33   79 1
    73   33   80 1
    74   34   81 1
    75   34   82 1
    76   35   36 1
    77   35   37 1
    78   35   43 1
    79   37   38 1
    80   37   42 1
    81   37   83 1
    82   38   39 1
    83   38   84 1
    84   38   85 1
    85   39   40 1
    86   39   41 1
    87   39   86 1
    88   40   87 1
    89   40   88 1
    90   40   89 1
    91   41   90 1
    92   41   91 1
    93   41   92 1
    94   42   93 1
    95   43   94 1
@<TRIPOS>MOLECULE
CHEMBL308356__6
   94    95     0     0     0
SMALL
USER_CHARGES

@<TRIPOS>ATOM
      1 C1         -0.9182    1.7039   -1.6586 C.3       1 <0>        -0.1527
      2 C2         -0.9362    0.2312   -1.2442 C.3       1 <0>         0.0829
      3 O1          0.1010   -0.4701   -1.9329 O.3       1 <0>        -0.3687
      4 C3          0.2219   -1.7867   -1.6784 C.2       1 <0>         0.6549
      5 O2         -0.5327   -2.3255   -0.8931 O.2       1 <0>        -0.5428
      6 N1          1.1799   -2.5070   -2.2948 N.am      1 <0>        -0.6966
      7 C4          1.3114   -3.9396   -2.0179 C.3       1 <0>         0.1647
      8 C5          1.5933   -4.1474   -0.5286 C.3       1 <0>        -0.0973
      9 C6          2.9329   -3.5500   -0.1828 C.ar      1 <0>        -0.0810
     10 C7          4.0776   -4.3193   -0.2757 C.ar      1 <0>        -0.1158
     11 C8          5.3064   -3.7713    0.0415 C.ar      1 <0>        -0.1177
     12 C9          5.3905   -2.4537    0.4512 C.ar      1 <0>        -0.1205
     13 C10         4.2459   -1.6841    0.5432 C.ar      1 <0>        -0.1179
     14 C11         3.0177   -2.2309    0.2219 C.ar      1 <0>        -0.1049
     15 C12         0.0313   -4.6427   -2.3897 C.2       1 <0>         0.5036
     16 O3         -0.9997   -4.0120   -2.4908 O.2       1 <0>        -0.4995
     17 N2          0.0322   -5.9723   -2.6099 N.am      1 <0>        -0.7146
     18 C13        -1.2289   -6.6738   -2.8627 C.3       1 <0>         0.1292
     19 C14        -1.5325   -6.6528   -4.3621 C.3       1 <0>        -0.1194
     20 C15        -2.9132   -7.2630   -4.6114 C.3       1 <0>        -0.1060
     21 C16        -3.9879   -6.3573   -4.0066 C.3       1 <0>        -0.1532
     22 C17        -3.1473   -7.3966   -6.1175 C.3       1 <0>        -0.1421
     23 C18        -1.1124   -8.1012   -2.3937 C.2       1 <0>         0.5036
     24 O4         -0.0184   -8.5957   -2.2216 O.2       1 <0>        -0.4999
     25 N3         -2.2240   -8.8284   -2.1655 N.am      1 <0>        -0.7113
     26 C19        -2.1138  -10.1822   -1.6167 C.3       1 <0>         0.1159
     27 H1         -1.2793  -10.2238   -0.9167 H         1 <0>         0.1080
     28 C20        -3.4094  -10.5440   -0.8877 C.3       1 <0>        -0.1304
     29 C21        -3.5997   -9.6091    0.3084 C.3       1 <0>        -0.0831
     30 C22        -2.4824   -9.8486    1.3258 C.3       1 <0>        -0.1150
     31 C23        -2.6727   -8.9137    2.5219 C.3       1 <0>        -0.1197
     32 C24        -4.0271   -9.1926    3.1767 C.3       1 <0>        -0.1202
     33 C25        -5.1445   -8.9531    2.1593 C.3       1 <0>        -0.1204
     34 C26        -4.9541   -9.8880    0.9632 C.3       1 <0>        -0.1140
     35 C27        -1.8746  -11.1761   -2.7551 C.3       1 <0>         0.0612
     36 H2         -1.8352  -12.1880   -2.3518 H         1 <0>         0.0597
     37 C28        -0.5489  -10.8506   -3.4461 C.3       1 <0>         0.1184
     38 C29        -0.3501  -11.7906   -4.6368 C.3       1 <0>        -0.1443
     39 C30         0.9117  -11.3854   -5.4014 C.3       1 <0>        -0.0914
     40 C31         1.1797  -12.3983   -6.5163 C.3       1 <0>        -0.1480
     41 C32         0.7145   -9.9961   -6.0111 C.3       1 <0>        -0.1458
     42 O5          0.5257  -11.0214   -2.5197 O.3       1 <0>        -0.5258
     43 O6         -2.9409  -11.0818   -3.7017 O.3       1 <0>        -0.5521
     44 H3          0.0471    2.1412   -1.4039 H         1 <0>         0.0658
     45 H4         -1.0796    1.7808   -2.7338 H         1 <0>         0.0661
     46 H5         -1.7094    2.2388   -1.1333 H         1 <0>         0.0812
     47 H6         -0.7749    0.1543   -0.1690 H         1 <0>         0.0656
     48 H7         -1.9016   -0.2062   -1.4989 H         1 <0>         0.0679
     49 H8          1.7823   -2.0769   -2.9217 H         1 <0>         0.4116
     50 H9          2.1342   -4.3489   -2.6041 H         1 <0>         0.1187
     51 H10         0.8156   -3.6607    0.0598 H         1 <0>         0.1045
     52 H11         1.6031   -5.2144   -0.3061 H         1 <0>         0.0896
     53 H12         4.0119   -5.3487   -0.5958 H         1 <0>         0.1235
     54 H13         6.2006   -4.3725   -0.0305 H         1 <0>         0.1225
     55 H14         6.3505   -2.0257    0.6997 H         1 <0>         0.1212
     56 H15         4.3116   -0.6548    0.8636 H         1 <0>         0.1208
     57 H16         2.1239   -1.6285    0.2903 H         1 <0>         0.1141
     58 H17         0.8678   -6.4649   -2.6010 H         1 <0>         0.4094
     59 H18        -2.0350   -6.1783   -2.3217 H         1 <0>         0.1103
     60 H19        -1.5199   -5.6236   -4.7209 H         1 <0>         0.0803
     61 H20        -0.7778   -7.2322   -4.8938 H         1 <0>         0.0701
     62 H21        -2.9645   -8.2478   -4.1470 H         1 <0>         0.0831
     63 H22        -3.9846   -5.3962   -4.5208 H         1 <0>         0.0596
     64 H23        -4.9649   -6.8269   -4.1204 H         1 <0>         0.0572
     65 H24        -3.7797   -6.2036   -2.9477 H         1 <0>         0.0534
     66 H25        -2.3818   -8.0418   -6.5484 H         1 <0>         0.0545
     67 H26        -4.1310   -7.8313   -6.2951 H         1 <0>         0.0569
     68 H27        -3.0961   -6.4118   -6.5819 H         1 <0>         0.0536
     69 H28        -3.0970   -8.4553   -2.3646 H         1 <0>         0.4013
     70 H29        -4.2525  -10.4370   -1.5703 H         1 <0>         0.0698
     71 H30        -3.3538  -11.5749   -0.5378 H         1 <0>         0.0804
     72 H31        -3.5665   -8.5738   -0.0308 H         1 <0>         0.0718
     73 H32        -2.5157  -10.8840    1.6650 H         1 <0>         0.0612
     74 H33        -1.5175   -9.6499    0.8593 H         1 <0>         0.0637
     75 H34        -1.8767   -9.0843    3.2467 H         1 <0>         0.0609
     76 H35        -2.6395   -7.8784    2.1826 H         1 <0>         0.0602
     77 H36        -4.0604  -10.2279    3.5159 H         1 <0>         0.0606
     78 H37        -4.1627   -8.5265    4.0288 H         1 <0>         0.0602
     79 H38        -6.1093   -9.1517    2.6258 H         1 <0>         0.0613
     80 H39        -5.1112   -7.9177    1.8201 H         1 <0>         0.0610
     81 H40        -5.7501   -9.7174    0.2384 H         1 <0>         0.0610
     82 H41        -4.9874  -10.9233    1.3024 H         1 <0>         0.0620
     83 H42        -0.5657   -9.8186   -3.7968 H         1 <0>         0.1147
     84 H43        -0.2444  -12.8144   -4.2778 H         1 <0>         0.0573
     85 H44        -1.2132  -11.7252   -5.2994 H         1 <0>         0.0774
     86 H45         1.7601  -11.3650   -4.7174 H         1 <0>         0.0749
     87 H46         0.3313  -12.4188   -7.2003 H         1 <0>         0.0522
     88 H47         2.0787  -12.1097   -7.0610 H         1 <0>         0.0535
     89 H48         1.3202  -13.3881   -6.0819 H         1 <0>         0.0516
     90 H49         1.6135   -9.7074   -6.5558 H         1 <0>         0.0516
     91 H50        -0.1339  -10.0166   -6.6951 H         1 <0>         0.0506
     92 H51         0.5235   -9.2745   -5.2168 H         1 <0>         0.0553
     93 H52         0.6010  -11.9182   -2.1658 H         1 <0>         0.3591
     94 H53        -3.8132  -11.2758   -3.3322 H         1 <0>         0.3746
@<TRIPOS>BOND
     1    1    2 1
     2    1   44 1
     3    1   45 1
     4    1   46 1
     5    2    3 1
     6    2   47 1
     7    2   48 1
     8    3    4 1
     9    4    5 2
    10    4    6 am
    11    6    7 1
    12    6   49 1
    13    7    8 1
    14    7   15 1
    15    7   50 1
    16    8    9 1
    17    8   51 1
    18    8   52 1
    19    9   14 ar
    20    9   10 ar
    21   10   11 ar
    22   10   53 1
    23   11   12 ar
    24   11   54 1
    25   12   13 ar
    26   12   55 1
    27   13   14 ar
    28   13   56 1
    29   14   57 1
    30   15   16 2
    31   15   17 am
    32   17   18 1
    33   17   58 1
    34   18   19 1
    35   18   23 1
    36   18   59 1
    37   19   20 1
    38   19   60 1
    39   19   61 1
    40   20   21 1
    41   20   22 1
    42   20   62 1
    43   21   63 1
    44   21   64 1
    45   21   65 1
    46   22   66 1
    47   22   67 1
    48   22   68 1
    49   23   24 2
    50   23   25 am
    51   25   26 1
    52   25   69 1
    53   26   27 1
    54   26   28 1
    55   26   35 1
    56   28   29 1
    57   28   70 1
    58   28   71 1
    59   29   34 1
    60   29   30 1
    61   29   72 1
    62   30   31 1
    63   30   73 1
    64   30   74 1
    65   31   32 1
    66   31   75 1
    67   31   76 1
    68   32   33 1
    69   32   77 1
    70   32   78 1
    71   33   34 1
    72   33   79 1
    73   33   80 1
    74   34   81 1
    75   34   82 1
    76   35   36 1
    77   35   37 1
    78   35   43 1
    79   37   38 1
    80   37   42 1
    81   37   83 1
    82   38   39 1
    83   38   84 1
    84   38   85 1
    85   39   40 1
    86   39   41 1
    87   39   86 1
    88   40   87 1
    89   40   88 1
    90   40   89 1
    91   41   90 1
    92   41   91 1
    93   41   92 1
    94   42   93 1
    95   43   94 1
@<TRIPOS>MOLECULE
CHEMBL308356__7
   94    95     0     0     0
SMALL
USER_CHARGES

@<TRIPOS>ATOM
      1 C1         -2.2584    2.1993   -2.0945 C.3       1 <0>        -0.1528
      2 C2         -2.0997    0.7837   -1.5360 C.3       1 <0>         0.0829
      3 O1         -0.8959    0.2040   -2.0425 O.3       1 <0>        -0.3685
      4 C3         -0.6063   -1.0492   -1.6444 C.2       1 <0>         0.6549
      5 O2         -1.3553   -1.6345   -0.8875 O.2       1 <0>        -0.5430
      6 N1          0.5143   -1.6543   -2.0853 N.am      1 <0>        -0.6967
      7 C4          0.8294   -3.0179   -1.6521 C.3       1 <0>         0.1649
      8 C5          0.9670   -3.0500   -0.1286 C.3       1 <0>        -0.0975
      9 C6          2.1516   -2.2160    0.2865 C.ar      1 <0>        -0.0816
     10 C7          3.4030   -2.7946    0.3872 C.ar      1 <0>        -0.1160
     11 C8          4.4896   -2.0297    0.7679 C.ar      1 <0>        -0.1176
     12 C9          4.3250   -0.6859    1.0474 C.ar      1 <0>        -0.1201
     13 C10         3.0738   -0.1071    0.9458 C.ar      1 <0>        -0.1177
     14 C11         1.9879   -0.8711    0.5609 C.ar      1 <0>        -0.1048
     15 C12        -0.2777   -3.9482   -2.0761 C.2       1 <0>         0.5039
     16 O3         -1.3741   -3.5039   -2.3434 O.2       1 <0>        -0.4980
     17 N2         -0.0495   -5.2739   -2.1583 N.am      1 <0>        -0.7157
     18 C13        -1.1518   -6.1895   -2.4630 C.3       1 <0>         0.1287
     19 C14        -1.2813   -6.3450   -3.9795 C.3       1 <0>        -0.1215
     20 C15        -2.5107   -7.1968   -4.3017 C.3       1 <0>        -0.1042
     21 C16        -3.7768   -6.4377   -3.8997 C.3       1 <0>        -0.1546
     22 C17        -2.5478   -7.4917   -5.8026 C.3       1 <0>        -0.1461
     23 C18        -0.8742   -7.5342   -1.8420 C.2       1 <0>         0.5090
     24 O4          0.2596   -7.8394   -1.5383 O.2       1 <0>        -0.5164
     25 N3         -1.8858   -8.3977   -1.6242 N.am      1 <0>        -0.7233
     26 C19        -1.6334   -9.6606   -0.9259 C.3       1 <0>         0.1149
     27 H1         -0.8705   -9.5075   -0.1626 H         1 <0>         0.1116
     28 C20        -2.9256  -10.1452   -0.2654 C.3       1 <0>        -0.1263
     29 C21        -3.3431   -9.1563    0.8248 C.3       1 <0>        -0.0831
     30 C22        -2.2951   -9.1537    1.9395 C.3       1 <0>        -0.1127
     31 C23        -2.7127   -8.1647    3.0298 C.3       1 <0>        -0.1198
     32 C24        -4.0678   -8.5817    3.6048 C.3       1 <0>        -0.1201
     33 C25        -5.1158   -8.5844    2.4901 C.3       1 <0>        -0.1198
     34 C26        -4.6983   -9.5733    1.3999 C.3       1 <0>        -0.1141
     35 C27        -1.1485  -10.7097   -1.9284 C.3       1 <0>         0.0618
     36 H2         -1.9115  -10.8628   -2.6917 H         1 <0>         0.0583
     37 C28        -0.8849  -12.0286   -1.1991 C.3       1 <0>         0.1182
     38 C29        -0.2826  -13.0402   -2.1763 C.3       1 <0>        -0.1404
     39 C30        -0.1507  -14.3994   -1.4864 C.3       1 <0>        -0.0956
     40 C31        -1.5437  -14.9536   -1.1808 C.3       1 <0>        -0.1502
     41 C32         0.5930  -15.3687   -2.4073 C.3       1 <0>        -0.1480
     42 O5          0.0283  -11.8037   -0.1232 O.3       1 <0>        -0.5540
     43 O6          0.0584  -10.2570   -2.5453 O.3       1 <0>        -0.5479
     44 H3         -1.4064    2.8074   -1.7907 H         1 <0>         0.0659
     45 H4         -2.3052    2.1574   -3.1827 H         1 <0>         0.0662
     46 H5         -3.1767    2.6415   -1.7082 H         1 <0>         0.0814
     47 H6         -2.0529    0.8257   -0.4478 H         1 <0>         0.0658
     48 H7         -2.9517    0.1756   -1.8399 H         1 <0>         0.0680
     49 H8          1.1122   -1.1871   -2.6895 H         1 <0>         0.4120
     50 H9          1.7666   -3.3367   -2.1083 H         1 <0>         0.1194
     51 H10         0.0620   -2.6475    0.3265 H         1 <0>         0.1048
     52 H11         1.1132   -4.0784    0.2014 H         1 <0>         0.0893
     53 H12         3.5316   -3.8445    0.1688 H         1 <0>         0.1233
     54 H13         5.4671   -2.4819    0.8473 H         1 <0>         0.1228
     55 H14         5.1738   -0.0884    1.3456 H         1 <0>         0.1214
     56 H15         2.9451    0.9427    1.1645 H         1 <0>         0.1211
     57 H16         1.0111   -0.4180    0.4779 H         1 <0>         0.1141
     58 H17         0.8447   -5.6219   -2.0158 H         1 <0>         0.4098
     59 H18        -2.0806   -5.7872   -2.0584 H         1 <0>         0.1132
     60 H19        -1.3903   -5.3619   -4.4376 H         1 <0>         0.0844
     61 H20        -0.3888   -6.8320   -4.3724 H         1 <0>         0.0729
     62 H21        -2.4582   -8.1345   -3.7484 H         1 <0>         0.0711
     63 H22        -3.8664   -5.5349   -4.5039 H         1 <0>         0.0623
     64 H23        -4.6481   -7.0721   -4.0628 H         1 <0>         0.0587
     65 H24        -3.7179   -6.1652   -2.8459 H         1 <0>         0.0551
     66 H25        -1.6458   -8.0325   -6.0890 H         1 <0>         0.0555
     67 H26        -3.4237   -8.0986   -6.0321 H         1 <0>         0.0582
     68 H27        -2.6003   -6.5540   -6.3559 H         1 <0>         0.0578
     69 H28        -2.7810   -8.1830   -1.9298 H         1 <0>         0.4025
     70 H29        -3.7136  -10.2133   -1.0154 H         1 <0>         0.0680
     71 H30        -2.7607  -11.1270    0.1785 H         1 <0>         0.0872
     72 H31        -3.4218   -8.1566    0.3977 H         1 <0>         0.0685
     73 H32        -2.2164  -10.1534    2.3667 H         1 <0>         0.0643
     74 H33        -1.3297   -8.8566    1.5299 H         1 <0>         0.0621
     75 H34        -1.9660   -8.1628    3.8239 H         1 <0>         0.0606
     76 H35        -2.7913   -7.1650    2.6026 H         1 <0>         0.0585
     77 H36        -3.9891   -9.5815    4.0319 H         1 <0>         0.0613
     78 H37        -4.3652   -7.8772    4.3815 H         1 <0>         0.0596
     79 H38        -6.0812   -8.8815    2.8998 H         1 <0>         0.0610
     80 H39        -5.1945   -7.5847    2.0630 H         1 <0>         0.0602
     81 H40        -5.4449   -9.5752    0.6058 H         1 <0>         0.0603
     82 H41        -4.6196  -10.5731    1.8270 H         1 <0>         0.0631
     83 H42        -1.8228  -12.4191   -0.8041 H         1 <0>         0.1105
     84 H43        -0.9321  -13.1359   -3.0464 H         1 <0>         0.0666
     85 H44         0.7019  -12.6968   -2.4938 H         1 <0>         0.0751
     86 H45         0.4058  -14.2824   -0.5565 H         1 <0>         0.0772
     87 H46        -2.1002  -15.0706   -2.1107 H         1 <0>         0.0524
     88 H47        -1.4498  -15.9219   -0.6893 H         1 <0>         0.0547
     89 H48        -2.0736  -14.2630   -0.5247 H         1 <0>         0.0544
     90 H49         0.6105  -16.3597   -1.9538 H         1 <0>         0.0544
     91 H50         0.0838  -15.4186   -3.3698 H         1 <0>         0.0522
     92 H51         1.6147  -15.0185   -2.5546 H         1 <0>         0.0535
     93 H52         0.8862  -11.4553   -0.4019 H         1 <0>         0.3825
     94 H53        -0.0347   -9.4236   -3.0269 H         1 <0>         0.3737
@<TRIPOS>BOND
     1    1    2 1
     2    1   44 1
     3    1   45 1
     4    1   46 1
     5    2    3 1
     6    2   47 1
     7    2   48 1
     8    3    4 1
     9    4    5 2
    10    4    6 am
    11    6    7 1
    12    6   49 1
    13    7    8 1
    14    7   15 1
    15    7   50 1
    16    8    9 1
    17    8   51 1
    18    8   52 1
    19    9   14 ar
    20    9   10 ar
    21   10   11 ar
    22   10   53 1
    23   11   12 ar
    24   11   54 1
    25   12   13 ar
    26   12   55 1
    27   13   14 ar
    28   13   56 1
    29   14   57 1
    30   15   16 2
    31   15   17 am
    32   17   18 1
    33   17   58 1
    34   18   19 1
    35   18   23 1
    36   18   59 1
    37   19   20 1
    38   19   60 1
    39   19   61 1
    40   20   21 1
    41   20   22 1
    42   20   62 1
    43   21   63 1
    44   21   64 1
    45   21   65 1
    46   22   66 1
    47   22   67 1
    48   22   68 1
    49   23   24 2
    50   23   25 am
    51   25   26 1
    52   25   69 1
    53   26   27 1
    54   26   28 1
    55   26   35 1
    56   28   29 1
    57   28   70 1
    58   28   71 1
    59   29   34 1
    60   29   30 1
    61   29   72 1
    62   30   31 1
    63   30   73 1
    64   30   74 1
    65   31   32 1
    66   31   75 1
    67   31   76 1
    68   32   33 1
    69   32   77 1
    70   32   78 1
    71   33   34 1
    72   33   79 1
    73   33   80 1
    74   34   81 1
    75   34   82 1
    76   35   36 1
    77   35   37 1
    78   35   43 1
    79   37   38 1
    80   37   42 1
    81   37   83 1
    82   38   39 1
    83   38   84 1
    84   38   85 1
    85   39   40 1
    86   39   41 1
    87   39   86 1
    88   40   87 1
    89   40   88 1
    90   40   89 1
    91   41   90 1
    92   41   91 1
    93   41   92 1
    94   42   93 1
    95   43   94 1
@<TRIPOS>MOLECULE
CHEMBL536982
   91    92     0     0     0
SMALL
USER_CHARGES

@<TRIPOS>ATOM
      1 C1          1.5877   -1.0454   -0.5668 C.3       1 <0>        -0.1535
      2 C2          1.1606   -0.6728    0.8544 C.3       1 <0>        -0.1044
      3 H1          1.0080    0.4047    0.9171 H         1 <0>         0.1175
      4 C3          2.2522   -1.0915    1.8412 C.3       1 <0>        -0.1563
      5 C4          1.9029   -0.5737    3.2380 C.3       1 <0>         0.0849
      6 H2          0.9072   -0.9196    3.5152 H         1 <0>         0.1555
      7 C5          2.9251   -1.1002    4.2474 C.3       1 <0>        -0.0092
      8 H3          2.9063   -2.1900    4.2487 H         1 <0>         0.1559
      9 C6          2.5758   -0.5824    5.6441 C.3       1 <0>        -0.1418
     10 C7          3.5464   -1.1776    6.6661 C.3       1 <0>        -0.0887
     11 H4          4.5713   -0.9828    6.3502 H         1 <0>         0.0663
     12 C8          3.3212   -2.6877    6.7640 C.3       1 <0>        -0.0787
     13 C9          4.3728   -3.2957    7.6559 C.ar      1 <0>        -0.0930
     14 C10         5.6120   -3.6227    7.1374 C.ar      1 <0>        -0.1206
     15 C11         6.5800   -4.1806    7.9514 C.ar      1 <0>        -0.1704
     16 C12         6.3095   -4.4129    9.2904 C.ar      1 <0>         0.1086
     17 C13         5.0624   -4.0834    9.8125 C.ar      1 <0>         0.1134
     18 C14         4.0982   -3.5200    8.9921 C.ar      1 <0>        -0.1686
     19 O1          4.7921   -4.3095   11.1260 O.3       1 <0>        -0.2966
     20 C15         3.4911   -3.9464   11.5924 C.3       1 <0>         0.0655
     21 C16         3.3742   -4.2727   13.0827 C.3       1 <0>        -0.1233
     22 C17         1.9813   -3.8839   13.5821 C.3       1 <0>         0.0672
     23 O2          1.8721   -4.1886   14.9740 O.3       1 <0>        -0.3875
     24 C18         0.6023   -3.8623   15.5425 C.3       1 <0>         0.0308
     25 O3          7.2606   -4.9621   10.0925 O.3       1 <0>        -0.3016
     26 C19         8.5171   -5.2752    9.4882 C.3       1 <0>         0.0245
     27 C20         3.3037   -0.5360    8.0338 C.3       1 <0>        -0.0923
     28 C21         3.5949    0.9638    7.9524 C.3       1 <0>        -0.1556
     29 C22         1.8461   -0.7509    8.4464 C.3       1 <0>        -0.1577
     30 N1          4.2671   -0.6340    3.8738 N.4       1 <0>        -0.6425
     31 O4          1.9276    0.8551    3.2362 O.3       1 <0>        -0.5367
     32 C23        -0.1241   -1.3828    1.1953 C.2       1 <0>         0.5286
     33 O5         -0.1629   -2.1485    2.1351 O.2       1 <0>        -0.5294
     34 N2         -1.2301   -1.1671    0.4559 N.am      1 <0>        -0.7278
     35 C24        -2.4790   -1.8574    0.7873 C.3       1 <0>         0.0939
     36 C25        -3.5706   -1.4386   -0.1996 C.3       1 <0>        -0.0230
     37 N3         -4.7877   -2.2207    0.0556 N.4       1 <0>        -0.3853
     38 C26        -5.7582   -1.9591   -1.0092 C.3       1 <0>        -0.0109
     39 C27        -6.8642   -3.0205   -0.9781 C.3       1 <0>        -0.1305
     40 S1         -7.7290   -2.8965    0.6187 S.3       1 <0>        -0.1803
     41 C28        -6.3577   -2.8973    1.8155 C.3       1 <0>        -0.1302
     42 C29        -5.3275   -1.8543    1.3665 C.3       1 <0>        -0.0188
     43 H5          1.8231   -2.1089   -0.6083 H         1 <0>         0.0683
     44 H6          0.7754   -0.8258   -1.2596 H         1 <0>         0.0673
     45 H7          2.4687   -0.4671   -0.8448 H         1 <0>         0.0789
     46 H8          2.3235   -2.1790    1.8642 H         1 <0>         0.1021
     47 H9          3.2074   -0.6714    1.5263 H         1 <0>         0.0780
     48 H10         2.6543    0.5047    5.6587 H         1 <0>         0.1031
     49 H11         1.5570   -0.8765    5.8964 H         1 <0>         0.1178
     50 H12         2.3335   -2.8814    7.1826 H         1 <0>         0.0862
     51 H13         3.3877   -3.1302    5.7701 H         1 <0>         0.0676
     52 H14         5.8241   -3.4421    6.0939 H         1 <0>         0.1161
     53 H15         7.5470   -4.4357    7.5437 H         1 <0>         0.1376
     54 H16         3.1308   -3.2599    9.3957 H         1 <0>         0.1347
     55 H17         3.3359   -2.8781   11.4411 H         1 <0>         0.0631
     56 H18         2.7373   -4.5052   11.0379 H         1 <0>         0.0635
     57 H19         3.5294   -5.3409   13.2340 H         1 <0>         0.0868
     58 H20         4.1281   -3.7138   13.6372 H         1 <0>         0.0866
     59 H21         1.8261   -2.8157   13.4308 H         1 <0>         0.0508
     60 H22         1.2274   -4.4427   13.0276 H         1 <0>         0.0509
     61 H23         0.4185   -2.7937   15.4319 H         1 <0>         0.0431
     62 H24        -0.1802   -4.4207   15.0287 H         1 <0>         0.0430
     63 H25         0.6001   -4.1238   16.6007 H         1 <0>         0.0922
     64 H26         8.3638   -5.9926    8.6820 H         1 <0>         0.0569
     65 H27         8.9631   -4.3658    9.0853 H         1 <0>         0.0562
     66 H28         9.1827   -5.7058   10.2362 H         1 <0>         0.1074
     67 H29         3.9617   -0.9944    8.7720 H         1 <0>         0.0865
     68 H30         2.8699    1.4394    7.2919 H         1 <0>         0.0562
     69 H31         3.5223    1.4025    8.9476 H         1 <0>         0.0651
     70 H32         4.6000    1.1180    7.5598 H         1 <0>         0.0536
     71 H33         1.6603   -1.8163    8.5824 H         1 <0>         0.0587
     72 H34         1.6521   -0.2259    9.3818 H         1 <0>         0.0634
     73 H35         1.1875   -0.3635    7.6690 H         1 <0>         0.0570
     74 H36         4.4649   -0.9060    2.9224 H         1 <0>         0.4323
     75 H37         4.3078    0.3712    3.9516 H         1 <0>         0.4311
     76 H38         2.7850    1.2334    2.9978 H         1 <0>         0.3692
     77 H39        -1.1991   -0.5547   -0.2958 H         1 <0>         0.4121
     78 H40        -2.3264   -2.9348    0.7246 H         1 <0>         0.0917
     79 H41        -2.7833   -1.5919    1.7998 H         1 <0>         0.0936
     80 H42        -3.7872   -0.3778   -0.0732 H         1 <0>         0.1434
     81 H43        -3.2286   -1.6207   -1.2184 H         1 <0>         0.1427
     82 H44        -6.1986   -0.9727   -0.8635 H         1 <0>         0.1465
     83 H45        -5.2535   -1.9901   -1.9749 H         1 <0>         0.1468
     84 H46        -7.5674   -2.8426   -1.7917 H         1 <0>         0.1582
     85 H47        -6.4246   -4.0125   -1.0819 H         1 <0>         0.1123
     86 H48        -6.7339   -2.6397    2.8056 H         1 <0>         0.1566
     87 H49        -5.8943   -3.8835    1.8429 H         1 <0>         0.1118
     88 H50        -4.5160   -1.8106    2.0930 H         1 <0>         0.1438
     89 H51        -5.8062   -0.8772    1.3008 H         1 <0>         0.1473
     90 H52         4.9505   -1.0470    4.4906 H         1 <0>         0.4409
     91 H53        -4.5555   -3.2026    0.0563 H         1 <0>         0.4237
@<TRIPOS>BOND
     1    1    2 1
     2    1   43 1
     3    1   44 1
     4    1   45 1
     5    2    3 1
     6    2    4 1
     7    2   32 1
     8    4    5 1
     9    4   46 1
    10    4   47 1
    11    5    6 1
    12    5    7 1
    13    5   31 1
    14    7    8 1
    15    7    9 1
    16    7   30 1
    17    9   10 1
    18    9   48 1
    19    9   49 1
    20   10   11 1
    21   10   12 1
    22   10   27 1
    23   12   13 1
    24   12   50 1
    25   12   51 1
    26   13   18 ar
    27   13   14 ar
    28   14   15 ar
    29   14   52 1
    30   15   16 ar
    31   15   53 1
    32   16   17 ar
    33   16   25 1
    34   17   18 ar
    35   17   19 1
    36   18   54 1
    37   19   20 1
    38   20   21 1
    39   20   55 1
    40   20   56 1
    41   21   22 1
    42   21   57 1
    43   21   58 1
    44   22   23 1
    45   22   59 1
    46   22   60 1
    47   23   24 1
    48   24   61 1
    49   24   62 1
    50   24   63 1
    51   25   26 1
    52   26   64 1
    53   26   65 1
    54   26   66 1
    55   27   28 1
    56   27   29 1
    57   27   67 1
    58   28   68 1
    59   28   69 1
    60   28   70 1
    61   29   71 1
    62   29   72 1
    63   29   73 1
    64   30   74 1
    65   30   75 1
    66   30   90 1
    67   31   76 1
    68   32   33 2
    69   32   34 am
    70   34   35 1
    71   34   77 1
    72   35   36 1
    73   35   78 1
    74   35   79 1
    75   36   37 1
    76   36   80 1
    77   36   81 1
    78   37   42 1
    79   37   38 1
    80   37   91 1
    81   38   39 1
    82   38   82 1
    83   38   83 1
    84   39   40 1
    85   39   84 1
    86   39   85 1
    87   40   41 1
    88   41   42 1
    89   41   86 1
    90   41   87 1
    91   42   88 1
    92   42   89 1
@<TRIPOS>MOLECULE
CHEMBL536982__1
   90    91     0     0     0
SMALL
USER_CHARGES

@<TRIPOS>ATOM
      1 C1          0.1112   -0.4496    2.0680 C.3       1 <0>        -0.1513
      2 C2         -0.2865   -0.3742    0.5925 C.3       1 <0>        -0.1070
      3 H1         -0.1671    0.6488    0.2358 H         1 <0>         0.1121
      4 C3         -1.7471   -0.8018    0.4356 C.3       1 <0>        -0.1515
      5 C4         -2.1961   -0.5633   -1.0075 C.3       1 <0>         0.0841
      6 H2         -1.5079   -1.0628   -1.6894 H         1 <0>         0.1597
      7 C5         -3.6055   -1.1259   -1.2027 C.3       1 <0>        -0.0090
      8 H3         -3.6014   -2.1960   -0.9956 H         1 <0>         0.1562
      9 C6         -4.0545   -0.8874   -2.6458 C.3       1 <0>        -0.1421
     10 C7         -5.4183   -1.5434   -2.8706 C.3       1 <0>        -0.0875
     11 H4         -6.1208   -1.1888   -2.1163 H         1 <0>         0.0655
     12 C8         -5.2774   -3.0630   -2.7621 C.3       1 <0>        -0.0817
     13 C9         -6.6405   -3.7008   -2.8419 C.ar      1 <0>        -0.0881
     14 C10        -7.4224   -3.8015   -1.7062 C.ar      1 <0>        -0.1205
     15 C11        -8.6735   -4.3857   -1.7742 C.ar      1 <0>        -0.1702
     16 C12        -9.1464   -4.8716   -2.9826 C.ar      1 <0>         0.1055
     17 C13        -8.3596   -4.7699   -4.1258 C.ar      1 <0>         0.1126
     18 C14        -7.1085   -4.1788   -4.0516 C.ar      1 <0>        -0.1680
     19 O1         -8.8194   -5.2452   -5.3141 O.3       1 <0>        -0.2978
     20 C15        -7.9575   -5.1067   -6.4454 C.3       1 <0>         0.0645
     21 C16        -8.6405   -5.6945   -7.6819 C.3       1 <0>        -0.1220
     22 C17        -7.7177   -5.5462   -8.8933 C.3       1 <0>         0.0664
     23 O2         -8.3557   -6.0951  -10.0481 O.3       1 <0>        -0.3885
     24 C18        -7.5740   -6.0069  -11.2411 C.3       1 <0>         0.0308
     25 O3        -10.3767   -5.4470   -3.0511 O.3       1 <0>        -0.3028
     26 C19       -11.1284   -5.5176   -1.8378 C.3       1 <0>         0.0251
     27 C20        -5.9370   -1.1774   -4.2627 C.3       1 <0>        -0.0918
     28 C21        -6.1628    0.3338   -4.3417 C.3       1 <0>        -0.1550
     29 C22        -4.9091   -1.5952   -5.3161 C.3       1 <0>        -0.1589
     30 N1         -4.5330   -0.4528   -0.2837 N.4       1 <0>        -0.6417
     31 O4         -2.2014    0.8396   -1.2790 O.3       1 <0>        -0.5347
     32 C23         0.5953   -1.2932   -0.2130 C.2       1 <0>         0.5198
     33 O5          0.1038   -2.2008   -0.8500 O.2       1 <0>        -0.5440
     34 N2          1.9300   -1.1066   -0.2257 N.am      1 <0>        -0.7228
     35 C24         2.7872   -2.0000   -1.0088 C.3       1 <0>         0.1182
     36 C25         4.2478   -1.5724   -0.8518 C.3       1 <0>         0.0482
     37 N3          5.1074   -2.4682   -1.6371 N.3       1 <0>        -0.5493
     38 C26         5.0429   -3.8392   -1.1255 C.3       1 <0>         0.0490
     39 C27         5.5515   -4.8163   -2.1918 C.3       1 <0>        -0.0775
     40 S1          7.2875   -4.4115   -2.5581 S.3       1 <0>        -0.2645
     41 C28         7.2247   -2.6192   -2.8670 C.3       1 <0>        -0.0774
     42 C29         6.4776   -1.9552   -1.7044 C.3       1 <0>         0.0569
     43 H5          1.1735   -0.2275    2.1697 H         1 <0>         0.0687
     44 H6         -0.4681    0.2768    2.6380 H         1 <0>         0.0723
     45 H7         -0.0884   -1.4518    2.4474 H         1 <0>         0.0659
     46 H8         -1.8436   -1.8606    0.6758 H         1 <0>         0.1003
     47 H9         -2.3714   -0.2175    1.1116 H         1 <0>         0.0721
     48 H10        -4.1319    0.1842   -2.8298 H         1 <0>         0.1021
     49 H11        -3.3252   -1.3217   -3.3297 H         1 <0>         0.1198
     50 H12        -4.6563   -3.4296   -3.5793 H         1 <0>         0.0876
     51 H13        -4.8123   -3.3177   -1.8098 H         1 <0>         0.0699
     52 H14        -7.0549   -3.4232   -0.7637 H         1 <0>         0.1172
     53 H15        -9.2820   -4.4638   -0.8854 H         1 <0>         0.1367
     54 H16        -6.4973   -4.0952   -4.9382 H         1 <0>         0.1354
     55 H17        -7.7465   -4.0508   -6.6143 H         1 <0>         0.0635
     56 H18        -7.0244   -5.6383   -6.2586 H         1 <0>         0.0644
     57 H19        -8.8515   -6.7504   -7.5130 H         1 <0>         0.0861
     58 H20        -9.5736   -5.1629   -7.8688 H         1 <0>         0.0855
     59 H21        -7.5067   -4.4902   -9.0622 H         1 <0>         0.0514
     60 H22        -6.7846   -6.0778   -8.7064 H         1 <0>         0.0521
     61 H23        -8.1277   -6.4448  -12.0716 H         1 <0>         0.0911
     62 H24        -7.3600   -4.9605  -11.4587 H         1 <0>         0.0431
     63 H25        -6.6379   -6.5480  -11.1030 H         1 <0>         0.0436
     64 H26       -12.0875   -5.9977   -2.0320 H         1 <0>         0.1056
     65 H27       -10.5742   -6.0981   -1.1003 H         1 <0>         0.0564
     66 H28       -11.2969   -4.5107   -1.4557 H         1 <0>         0.0555
     67 H29        -6.8780   -1.6955   -4.4476 H         1 <0>         0.0847
     68 H30        -5.2056    0.8489   -4.2619 H         1 <0>         0.0574
     69 H31        -6.6306    0.5819   -5.2945 H         1 <0>         0.0634
     70 H32        -6.8133    0.6472   -3.5252 H         1 <0>         0.0526
     71 H33        -4.8068   -2.6804   -5.3135 H         1 <0>         0.0589
     72 H34        -5.2417   -1.2640   -6.2998 H         1 <0>         0.0621
     73 H35        -3.9464   -1.1390   -5.0854 H         1 <0>         0.0598
     74 H36        -4.5994    0.5239   -0.5284 H         1 <0>         0.4298
     75 H37        -5.4446   -0.8797   -0.3535 H         1 <0>         0.4380
     76 H38        -2.7933    1.3485   -0.7082 H         1 <0>         0.3645
     77 H39         2.3230   -0.3807    0.2837 H         1 <0>         0.4034
     78 H40         2.6677   -3.0230   -0.6521 H         1 <0>         0.0730
     79 H41         2.5038   -1.9463   -2.0599 H         1 <0>         0.0811
     80 H42         4.3672   -0.5494   -1.2085 H         1 <0>         0.0859
     81 H43         4.5312   -1.6261    0.1993 H         1 <0>         0.0450
     82 H44         5.6627   -3.9223   -0.2328 H         1 <0>         0.0534
     83 H45         4.0111   -4.0835   -0.8729 H         1 <0>         0.0883
     84 H46         5.4838   -5.8374   -1.8164 H         1 <0>         0.1106
     85 H47         4.9523   -4.7168   -3.0969 H         1 <0>         0.0926
     86 H48         8.2376   -2.2212   -2.9276 H         1 <0>         0.1121
     87 H49         6.6970   -2.4257   -3.8009 H         1 <0>         0.0932
     88 H50         6.4533   -0.8764   -1.8584 H         1 <0>         0.0883
     89 H51         6.9932   -2.1752   -0.7696 H         1 <0>         0.0539
     90 H52        -4.1922   -0.5402    0.6619 H         1 <0>         0.4325
@<TRIPOS>BOND
     1    1    2 1
     2    1   43 1
     3    1   44 1
     4    1   45 1
     5    2    3 1
     6    2    4 1
     7    2   32 1
     8    4    5 1
     9    4   46 1
    10    4   47 1
    11    5    6 1
    12    5    7 1
    13    5   31 1
    14    7    8 1
    15    7    9 1
    16    7   30 1
    17    9   10 1
    18    9   48 1
    19    9   49 1
    20   10   11 1
    21   10   12 1
    22   10   27 1
    23   12   13 1
    24   12   50 1
    25   12   51 1
    26   13   18 ar
    27   13   14 ar
    28   14   15 ar
    29   14   52 1
    30   15   16 ar
    31   15   53 1
    32   16   17 ar
    33   16   25 1
    34   17   18 ar
    35   17   19 1
    36   18   54 1
    37   19   20 1
    38   20   21 1
    39   20   55 1
    40   20   56 1
    41   21   22 1
    42   21   57 1
    43   21   58 1
    44   22   23 1
    45   22   59 1
    46   22   60 1
    47   23   24 1
    48   24   61 1
    49   24   62 1
    50   24   63 1
    51   25   26 1
    52   26   64 1
    53   26   65 1
    54   26   66 1
    55   27   28 1
    56   27   29 1
    57   27   67 1
    58   28   68 1
    59   28   69 1
    60   28   70 1
    61   29   71 1
    62   29   72 1
    63   29   73 1
    64   30   74 1
    65   30   75 1
    66   30   90 1
    67   31   76 1
    68   32   33 2
    69   32   34 am
    70   34   35 1
    71   34   77 1
    72   35   36 1
    73   35   78 1
    74   35   79 1
    75   36   37 1
    76   36   80 1
    77   36   81 1
    78   37   42 1
    79   37   38 1
    80   38   39 1
    81   38   82 1
    82   38   83 1
    83   39   40 1
    84   39   84 1
    85   39   85 1
    86   40   41 1
    87   41   42 1
    88   41   86 1
    89   41   87 1
    90   42   88 1
    91   42   89 1
@<TRIPOS>MOLECULE
CHEMBL536981
   93    94     0     0     0
SMALL
USER_CHARGES

@<TRIPOS>ATOM
      1 C1         -1.8348   -0.4594   -0.9453 C.3       1 <0>        -0.1513
      2 C2         -0.3593   -0.3689   -0.5505 C.3       1 <0>        -0.1075
      3 H1         -0.1260    0.6520   -0.2483 H         1 <0>         0.1115
      4 C3          0.5132   -0.7591   -1.7452 C.3       1 <0>        -0.1514
      5 C4          1.9836   -0.5044   -1.4077 C.3       1 <0>         0.0841
      6 H2          2.2380   -1.0186   -0.4809 H         1 <0>         0.1594
      7 C5          2.8657   -1.0308   -2.5416 C.3       1 <0>        -0.0090
      8 H3          2.7010   -2.1014   -2.6630 H         1 <0>         0.1562
      9 C6          4.3361   -0.7760   -2.2041 C.3       1 <0>        -0.1421
     10 C7          5.2225   -1.3968   -3.2857 C.3       1 <0>        -0.0876
     11 H4          4.9148   -1.0273   -4.2639 H         1 <0>         0.0656
     12 C8          5.0818   -2.9198   -3.2483 C.3       1 <0>        -0.0817
     13 C9          5.8420   -3.5230   -4.4013 C.ar      1 <0>        -0.0881
     14 C10         5.2508   -3.6079   -5.6482 C.ar      1 <0>        -0.1204
     15 C11         5.9440   -4.1603   -6.7090 C.ar      1 <0>        -0.1701
     16 C12         7.2344   -4.6300   -6.5241 C.ar      1 <0>         0.1056
     17 C13         7.8297   -4.5440   -5.2692 C.ar      1 <0>         0.1125
     18 C14         7.1311   -3.9848   -4.2113 C.ar      1 <0>        -0.1680
     19 O1          9.0960   -5.0036   -5.0827 O.3       1 <0>        -0.2978
     20 C15         9.6429   -4.8828   -3.7681 C.3       1 <0>         0.0645
     21 C16        11.0643   -5.4488   -3.7531 C.3       1 <0>        -0.1220
     22 C17        11.6499   -5.3195   -2.3455 C.3       1 <0>         0.0664
     23 O2         12.9774   -5.8482   -2.3314 O.3       1 <0>        -0.3884
     24 C18        13.6185   -5.7755   -1.0564 C.3       1 <0>         0.0308
     25 O3          7.9175   -5.1741   -7.5666 O.3       1 <0>        -0.3028
     26 C19         7.2435   -5.2300   -8.8254 C.3       1 <0>         0.0251
     27 C20         6.6817   -1.0130   -3.0315 C.3       1 <0>        -0.0918
     28 C21         6.8395    0.5036   -3.1573 C.3       1 <0>        -0.1550
     29 C22         7.0868   -1.4529   -1.6232 C.3       1 <0>        -0.1589
     30 N1          2.5228   -0.3378   -3.7907 N.4       1 <0>        -0.6416
     31 O4          2.1995    0.8992   -1.2485 O.3       1 <0>        -0.5350
     32 C23        -0.0880   -1.3070    0.5974 C.2       1 <0>         0.5180
     33 O5          0.7233   -2.1997    0.4722 O.2       1 <0>        -0.5467
     34 N2         -0.7470   -1.1538    1.7630 N.am      1 <0>        -0.7220
     35 C24        -0.4832   -2.0657    2.8789 C.3       1 <0>         0.1187
     36 C25        -1.3557   -1.6755    4.0736 C.3       1 <0>        -0.1301
     37 C26        -1.0803   -2.6278    5.2389 C.3       1 <0>         0.0581
     38 N3         -1.9180   -2.2532    6.3860 N.3       1 <0>        -0.5375
     39 C27        -1.5271   -0.9391    6.9170 C.3       1 <0>         0.0140
     40 C28        -2.4615   -0.5620    8.0697 C.3       1 <0>         0.0618
     41 O6         -2.4155   -1.5849    9.0681 O.3       1 <0>        -0.3834
     42 C29        -2.7908   -2.8778    8.5856 C.3       1 <0>         0.0621
     43 C30        -1.8598   -3.2784    7.4381 C.3       1 <0>         0.0171
     44 H5         -2.0502    0.2793   -1.7173 H         1 <0>         0.0719
     45 H6         -2.0479   -1.4576   -1.3278 H         1 <0>         0.0660
     46 H7         -2.4572   -0.2644   -0.0720 H         1 <0>         0.0694
     47 H8          0.3698   -1.8160   -1.9700 H         1 <0>         0.1003
     48 H9          0.2306   -0.1617   -2.6120 H         1 <0>         0.0719
     49 H10         4.5175    0.2978   -2.1577 H         1 <0>         0.1020
     50 H11         4.5707   -1.2261   -1.2395 H         1 <0>         0.1196
     51 H12         5.4850   -3.2990   -2.3093 H         1 <0>         0.0875
     52 H13         4.0286   -3.1894   -3.3268 H         1 <0>         0.0701
     53 H14         4.2451   -3.2423   -5.7936 H         1 <0>         0.1173
     54 H15         5.4796   -4.2262   -7.6819 H         1 <0>         0.1368
     55 H16         7.5921   -3.9135   -3.2372 H         1 <0>         0.1353
     56 H17         9.6673   -3.8319   -3.4798 H         1 <0>         0.0635
     57 H18         9.0231   -5.4383   -3.0643 H         1 <0>         0.0644
     58 H19        11.0399   -6.4998   -4.0413 H         1 <0>         0.0861
     59 H20        11.6840   -4.8933   -4.4569 H         1 <0>         0.0856
     60 H21        11.6742   -4.2686   -2.0572 H         1 <0>         0.0513
     61 H22        11.0301   -5.8750   -1.6417 H         1 <0>         0.0520
     62 H23        14.6213   -6.1965   -1.1294 H         1 <0>         0.0911
     63 H24        13.6838   -4.7340   -0.7414 H         1 <0>         0.0431
     64 H25        13.0396   -6.3404   -0.3258 H         1 <0>         0.0435
     65 H26         6.3369   -5.8268   -8.7259 H         1 <0>         0.0565
     66 H27         6.9811   -4.2206   -9.1421 H         1 <0>         0.0555
     67 H28         7.8985   -5.6852   -9.5683 H         1 <0>         0.1056
     68 H29         7.3201   -1.5067   -3.7641 H         1 <0>         0.0847
     69 H30         6.2839    0.9942   -2.3580 H         1 <0>         0.0574
     70 H31         7.8945    0.7667   -3.0809 H         1 <0>         0.0634
     71 H32         6.4524    0.8304   -4.1224 H         1 <0>         0.0527
     72 H33         7.0504   -2.5403   -1.5576 H         1 <0>         0.0588
     73 H34         8.0998   -1.1099   -1.4128 H         1 <0>         0.0621
     74 H35         6.3988   -1.0218   -0.8959 H         1 <0>         0.0597
     75 H36         1.5349   -0.4370   -3.9701 H         1 <0>         0.4327
     76 H37         2.7527    0.6410   -3.7063 H         1 <0>         0.4298
     77 H38         1.9931    1.4207   -2.0362 H         1 <0>         0.3646
     78 H39        -1.3959   -0.4398    1.8632 H         1 <0>         0.4042
     79 H40        -0.7165   -3.0867    2.5767 H         1 <0>         0.0728
     80 H41         0.5679   -2.0012    3.1601 H         1 <0>         0.0699
     81 H42        -1.1224   -0.6545    4.3758 H         1 <0>         0.0714
     82 H43        -2.4068   -1.7399    3.7923 H         1 <0>         0.0813
     83 H44        -1.3136   -3.6488    4.9367 H         1 <0>         0.0810
     84 H45        -0.0292   -2.5634    5.5202 H         1 <0>         0.0397
     85 H46        -0.5005   -0.9842    7.2804 H         1 <0>         0.0444
     86 H47        -1.6021   -0.1908    6.1280 H         1 <0>         0.0867
     87 H48        -2.1403    0.3849    8.5036 H         1 <0>         0.0996
     88 H49        -3.4805   -0.4645    7.6952 H         1 <0>         0.0608
     89 H50        -2.7078   -3.6057    9.3926 H         1 <0>         0.1014
     90 H51        -3.8194   -2.8476    8.2261 H         1 <0>         0.0616
     91 H52        -2.1776   -4.2376    7.0295 H         1 <0>         0.0886
     92 H53        -0.8385   -3.3608    7.8099 H         1 <0>         0.0454
     93 H54         3.0454   -0.7414   -4.5536 H         1 <0>         0.4379
@<TRIPOS>BOND
     1    1    2 1
     2    1   44 1
     3    1   45 1
     4    1   46 1
     5    2    3 1
     6    2    4 1
     7    2   32 1
     8    4    5 1
     9    4   47 1
    10    4   48 1
    11    5    6 1
    12    5    7 1
    13    5   31 1
    14    7    8 1
    15    7    9 1
    16    7   30 1
    17    9   10 1
    18    9   49 1
    19    9   50 1
    20   10   11 1
    21   10   12 1
    22   10   27 1
    23   12   13 1
    24   12   51 1
    25   12   52 1
    26   13   18 ar
    27   13   14 ar
    28   14   15 ar
    29   14   53 1
    30   15   16 ar
    31   15   54 1
    32   16   17 ar
    33   16   25 1
    34   17   18 ar
    35   17   19 1
    36   18   55 1
    37   19   20 1
    38   20   21 1
    39   20   56 1
    40   20   57 1
    41   21   22 1
    42   21   58 1
    43   21   59 1
    44   22   23 1
    45   22   60 1
    46   22   61 1
    47   23   24 1
    48   24   62 1
    49   24   63 1
    50   24   64 1
    51   25   26 1
    52   26   65 1
    53   26   66 1
    54   26   67 1
    55   27   28 1
    56   27   29 1
    57   27   68 1
    58   28   69 1
    59   28   70 1
    60   28   71 1
    61   29   72 1
    62   29   73 1
    63   29   74 1
    64   30   75 1
    65   30   76 1
    66   30   93 1
    67   31   77 1
    68   32   33 2
    69   32   34 am
    70   34   35 1
    71   34   78 1
    72   35   36 1
    73   35   79 1
    74   35   80 1
    75   36   37 1
    76   36   81 1
    77   36   82 1
    78   37   38 1
    79   37   83 1
    80   37   84 1
    81   38   43 1
    82   38   39 1
    83   39   40 1
    84   39   85 1
    85   39   86 1
    86   40   41 1
    87   40   87 1
    88   40   88 1
    89   41   42 1
    90   42   43 1
    91   42   89 1
    92   42   90 1
    93   43   91 1
    94   43   92 1
@<TRIPOS>MOLECULE
CHEMBL536981__1
   94    95     0     0     0
SMALL
USER_CHARGES

@<TRIPOS>ATOM
      1 C1          0.1112   -0.4496    2.0680 C.3       1 <0>        -0.1521
      2 C2         -0.2865   -0.3742    0.5925 C.3       1 <0>        -0.1060
      3 H1         -0.1671    0.6488    0.2358 H         1 <0>         0.1142
      4 C3         -1.7471   -0.8018    0.4356 C.3       1 <0>        -0.1551
      5 C4         -2.1961   -0.5633   -1.0075 C.3       1 <0>         0.0853
      6 H2         -1.5079   -1.0628   -1.6894 H         1 <0>         0.1562
      7 C5         -3.6055   -1.1259   -1.2027 C.3       1 <0>        -0.0094
      8 H3         -3.6014   -2.1960   -0.9956 H         1 <0>         0.1561
      9 C6         -4.0545   -0.8874   -2.6458 C.3       1 <0>        -0.1416
     10 C7         -5.4183   -1.5434   -2.8706 C.3       1 <0>        -0.0884
     11 H4         -6.1208   -1.1888   -2.1163 H         1 <0>         0.0664
     12 C8         -5.2774   -3.0630   -2.7621 C.3       1 <0>        -0.0791
     13 C9         -6.6405   -3.7008   -2.8419 C.ar      1 <0>        -0.0921
     14 C10        -7.4224   -3.8015   -1.7062 C.ar      1 <0>        -0.1204
     15 C11        -8.6735   -4.3857   -1.7742 C.ar      1 <0>        -0.1704
     16 C12        -9.1464   -4.8716   -2.9826 C.ar      1 <0>         0.1081
     17 C13        -8.3596   -4.7699   -4.1258 C.ar      1 <0>         0.1131
     18 C14        -7.1085   -4.1788   -4.0516 C.ar      1 <0>        -0.1685
     19 O1         -8.8194   -5.2452   -5.3141 O.3       1 <0>        -0.2968
     20 C15        -7.9575   -5.1067   -6.4454 C.3       1 <0>         0.0654
     21 C16        -8.6405   -5.6945   -7.6819 C.3       1 <0>        -0.1231
     22 C17        -7.7177   -5.5462   -8.8933 C.3       1 <0>         0.0671
     23 O2         -8.3557   -6.0951  -10.0481 O.3       1 <0>        -0.3876
     24 C18        -7.5740   -6.0069  -11.2411 C.3       1 <0>         0.0309
     25 O3        -10.3767   -5.4470   -3.0511 O.3       1 <0>        -0.3018
     26 C19       -11.1284   -5.5176   -1.8378 C.3       1 <0>         0.0246
     27 C20        -5.9370   -1.1774   -4.2627 C.3       1 <0>        -0.0924
     28 C21        -6.1628    0.3338   -4.3417 C.3       1 <0>        -0.1553
     29 C22        -4.9091   -1.5952   -5.3161 C.3       1 <0>        -0.1579
     30 N1         -4.5330   -0.4528   -0.2837 N.4       1 <0>        -0.6422
     31 O4         -2.2014    0.8396   -1.2790 O.3       1 <0>        -0.5367
     32 C23         0.5953   -1.2932   -0.2130 C.2       1 <0>         0.5236
     33 O5          0.1038   -2.2008   -0.8500 O.2       1 <0>        -0.5350
     34 N2          1.9300   -1.1066   -0.2257 N.am      1 <0>        -0.7306
     35 C24         2.7872   -2.0000   -1.0088 C.3       1 <0>         0.1225
     36 C25         4.2478   -1.5724   -0.8518 C.3       1 <0>        -0.1650
     37 C26         5.1430   -2.5054   -1.6697 C.3       1 <0>        -0.0052
     38 N3          6.5454   -2.0949   -1.5190 N.4       1 <0>        -0.3854
     39 C27         6.7321   -0.7624   -2.1096 C.3       1 <0>        -0.0485
     40 C28         8.1939   -0.3369   -1.9511 C.3       1 <0>         0.0355
     41 O6          9.0383   -1.3099   -2.5725 O.3       1 <0>        -0.3542
     42 C29         8.8755   -2.6302   -2.0471 C.3       1 <0>         0.0349
     43 C30         7.4150   -3.0600   -2.2057 C.3       1 <0>        -0.0436
     44 H5          1.1735   -0.2275    2.1697 H         1 <0>         0.0664
     45 H6         -0.4681    0.2768    2.6380 H         1 <0>         0.0764
     46 H7         -0.0884   -1.4518    2.4474 H         1 <0>         0.0675
     47 H8         -1.8436   -1.8606    0.6758 H         1 <0>         0.1014
     48 H9         -2.3714   -0.2175    1.1116 H         1 <0>         0.0761
     49 H10        -4.1319    0.1842   -2.8298 H         1 <0>         0.1023
     50 H11        -3.3252   -1.3217   -3.3297 H         1 <0>         0.1183
     51 H12        -4.6563   -3.4296   -3.5793 H         1 <0>         0.0862
     52 H13        -4.8123   -3.3177   -1.8098 H         1 <0>         0.0681
     53 H14        -7.0549   -3.4232   -0.7637 H         1 <0>         0.1165
     54 H15        -9.2820   -4.4638   -0.8854 H         1 <0>         0.1375
     55 H16        -6.4973   -4.0952   -4.9382 H         1 <0>         0.1347
     56 H17        -7.7465   -4.0508   -6.6143 H         1 <0>         0.0631
     57 H18        -7.0244   -5.6383   -6.2586 H         1 <0>         0.0636
     58 H19        -8.8515   -6.7504   -7.5130 H         1 <0>         0.0867
     59 H20        -9.5736   -5.1629   -7.8688 H         1 <0>         0.0865
     60 H21        -7.5067   -4.4902   -9.0622 H         1 <0>         0.0508
     61 H22        -6.7846   -6.0778   -8.7064 H         1 <0>         0.0510
     62 H23        -8.1277   -6.4448  -12.0716 H         1 <0>         0.0921
     63 H24        -7.3600   -4.9605  -11.4587 H         1 <0>         0.0430
     64 H25        -6.6379   -6.5480  -11.1030 H         1 <0>         0.0430
     65 H26       -10.5742   -6.0981   -1.1003 H         1 <0>         0.0568
     66 H27       -11.2969   -4.5107   -1.4557 H         1 <0>         0.0561
     67 H28       -12.0875   -5.9977   -2.0320 H         1 <0>         0.1071
     68 H29        -6.8780   -1.6955   -4.4476 H         1 <0>         0.0864
     69 H30        -5.2056    0.8489   -4.2619 H         1 <0>         0.0561
     70 H31        -6.6306    0.5819   -5.2945 H         1 <0>         0.0646
     71 H32        -6.8133    0.6472   -3.5252 H         1 <0>         0.0535
     72 H33        -4.8068   -2.6804   -5.3135 H         1 <0>         0.0586
     73 H34        -5.2417   -1.2640   -6.2998 H         1 <0>         0.0630
     74 H35        -3.9464   -1.1390   -5.0854 H         1 <0>         0.0576
     75 H36        -4.5994    0.5239   -0.5284 H         1 <0>         0.4307
     76 H37        -5.4446   -0.8797   -0.3535 H         1 <0>         0.4403
     77 H38        -2.7933    1.3485   -0.7082 H         1 <0>         0.3679
     78 H39         2.3230   -0.3807    0.2837 H         1 <0>         0.4062
     79 H40         2.6677   -3.0230   -0.6521 H         1 <0>         0.0817
     80 H41         2.5038   -1.9463   -2.0599 H         1 <0>         0.0811
     81 H42         4.3672   -0.5494   -1.2085 H         1 <0>         0.0959
     82 H43         4.5312   -1.6261    0.1993 H         1 <0>         0.0966
     83 H44         5.0236   -3.5285   -1.3130 H         1 <0>         0.1380
     84 H45         4.8597   -2.4517   -2.7208 H         1 <0>         0.1357
     85 H46         6.4755   -0.7948   -3.1684 H         1 <0>         0.1405
     86 H47         6.0875   -0.0457   -1.6007 H         1 <0>         0.1410
     87 H48         8.3444    0.6324   -2.4264 H         1 <0>         0.1431
     88 H49         8.4394   -0.2655   -0.8915 H         1 <0>         0.0819
     89 H50         9.5194   -3.3207   -2.5918 H         1 <0>         0.1448
     90 H51         9.1444   -2.6373   -0.9907 H         1 <0>         0.0827
     91 H52         7.2774   -4.0489   -1.7683 H         1 <0>         0.1447
     92 H53         7.1582   -3.0915   -3.2646 H         1 <0>         0.1407
     93 H54        -4.1922   -0.5402    0.6619 H         1 <0>         0.4323
     94 H55         6.7839   -2.0651   -0.5390 H         1 <0>         0.4239
@<TRIPOS>BOND
     1    1    2 1
     2    1   44 1
     3    1   45 1
     4    1   46 1
     5    2    3 1
     6    2    4 1
     7    2   32 1
     8    4    5 1
     9    4   47 1
    10    4   48 1
    11    5    6 1
    12    5    7 1
    13    5   31 1
    14    7    8 1
    15    7    9 1
    16    7   30 1
    17    9   10 1
    18    9   49 1
    19    9   50 1
    20   10   11 1
    21   10   12 1
    22   10   27 1
    23   12   13 1
    24   12   51 1
    25   12   52 1
    26   13   18 ar
    27   13   14 ar
    28   14   15 ar
    29   14   53 1
    30   15   16 ar
    31   15   54 1
    32   16   17 ar
    33   16   25 1
    34   17   18 ar
    35   17   19 1
    36   18   55 1
    37   19   20 1
    38   20   21 1
    39   20   56 1
    40   20   57 1
    41   21   22 1
    42   21   58 1
    43   21   59 1
    44   22   23 1
    45   22   60 1
    46   22   61 1
    47   23   24 1
    48   24   62 1
    49   24   63 1
    50   24   64 1
    51   25   26 1
    52   26   65 1
    53   26   66 1
    54   26   67 1
    55   27   28 1
    56   27   29 1
    57   27   68 1
    58   28   69 1
    59   28   70 1
    60   28   71 1
    61   29   72 1
    62   29   73 1
    63   29   74 1
    64   30   75 1
    65   30   76 1
    66   30   93 1
    67   31   77 1
    68   32   33 2
    69   32   34 am
    70   34   35 1
    71   34   78 1
    72   35   36 1
    73   35   79 1
    74   35   80 1
    75   36   37 1
    76   36   81 1
    77   36   82 1
    78   37   38 1
    79   37   83 1
    80   37   84 1
    81   38   43 1
    82   38   39 1
    83   38   94 1
    84   39   40 1
    85   39   85 1
    86   39   86 1
    87   40   41 1
    88   40   87 1
    89   40   88 1
    90   41   42 1
    91   42   43 1
    92   42   89 1
    93   42   90 1
    94   43   91 1
    95   43   92 1
@<TRIPOS>MOLECULE
CHEMBL168638
   88    91     0     0     0
SMALL
USER_CHARGES

@<TRIPOS>ATOM
      1 C1         -0.0187    1.5258    0.0104 C.3       1 <0>        -0.1372
      2 C2          0.0021   -0.0041    0.0020 C.3       1 <0>        -0.0910
      3 C3          0.7421   -0.5109    1.2415 C.3       1 <0>        -0.1467
      4 C4         -1.4333   -0.5336    0.0129 C.3       1 <0>        -0.1208
      5 C5         -2.1352   -0.1312   -1.2857 C.3       1 <0>         0.1291
      6 C6         -3.5829   -0.5453   -1.2234 C.2       1 <0>         0.5045
      7 O1         -4.0280   -1.3193   -2.0441 O.2       1 <0>        -0.5123
      8 N1         -4.3828   -0.0556   -0.2556 N.am      1 <0>        -0.7198
      9 C7         -5.7901   -0.4582   -0.1950 C.3       1 <0>         0.1189
     10 H1         -5.8845   -1.4976   -0.5093 H         1 <0>         0.1096
     11 C8         -6.3015   -0.3106    1.2394 C.3       1 <0>        -0.1379
     12 C9         -5.5601   -1.2927    2.1487 C.3       1 <0>        -0.0822
     13 C10        -5.9063   -2.7261    1.7410 C.3       1 <0>        -0.1177
     14 C11        -5.1649   -3.7082    2.6503 C.3       1 <0>        -0.1184
     15 C12        -5.5855   -3.4754    4.1028 C.3       1 <0>        -0.1207
     16 C13        -5.2393   -2.0419    4.5105 C.3       1 <0>        -0.1197
     17 C14        -5.9807   -1.0599    3.6012 C.3       1 <0>        -0.1132
     18 C15        -6.6160    0.4329   -1.1250 C.3       1 <0>         0.1051
     19 C16        -8.0636    0.0187   -1.0627 C.2       1 <0>         0.4653
     20 O2         -8.6031   -0.4409   -2.0413 O.2       1 <0>        -0.4722
     21 O3         -8.7537    0.1606    0.0798 O.3       1 <0>        -0.3471
     22 C17       -10.1216   -0.2526    0.0671 C.3       1 <0>         0.0302
     23 O4         -6.1383    0.2951   -2.4648 O.3       1 <0>        -0.5257
     24 N2         -1.4855   -0.7957   -2.4182 N.am      1 <0>        -0.7126
     25 C18        -0.3957   -0.2445   -2.9881 C.2       1 <0>         0.5010
     26 O5          0.0472    0.8017   -2.5634 O.2       1 <0>        -0.4882
     27 C19         0.2727   -0.9281   -4.1531 C.3       1 <0>         0.1659
     28 H2         -0.4872   -1.3370   -4.8190 H         1 <0>         0.1149
     29 C20         1.1624   -2.0610   -3.6376 C.3       1 <0>        -0.0914
     30 C21         1.7340   -2.8221   -4.8060 C.ar      1 <0>        -0.0821
     31 C22         1.0484   -3.9024   -5.3292 C.ar      1 <0>        -0.1158
     32 C23         1.5728   -4.6005   -6.4010 C.ar      1 <0>        -0.1179
     33 C24         2.7825   -4.2180   -6.9497 C.ar      1 <0>        -0.1192
     34 C25         3.4677   -3.1371   -6.4270 C.ar      1 <0>        -0.1174
     35 C26         2.9412   -2.4364   -5.3580 C.ar      1 <0>        -0.1027
     36 N3          1.0917    0.0420   -4.8841 N.am      1 <0>        -0.6017
     37 C27         0.9198    0.4168   -6.2923 C.3       1 <0>         0.1453
     38 C28         1.9872    1.4398   -6.5902 C.ar      1 <0>        -0.0822
     39 C29         2.3254    2.1472   -7.7207 C.ar      1 <0>        -0.1029
     40 C30         3.3840    3.0393   -7.6873 C.ar      1 <0>        -0.0883
     41 C31         4.1039    3.2214   -6.5196 C.ar      1 <0>        -0.1264
     42 C32         3.7732    2.5172   -5.3806 C.ar      1 <0>        -0.0471
     43 C33         2.7068    1.6162   -5.4062 C.ar      1 <0>        -0.1532
     44 C34         2.1211    0.7398   -4.3738 C.2       1 <0>         0.5694
     45 O6          2.5147    0.6586   -3.2267 O.2       1 <0>        -0.4961
     46 H3          1.0039    1.9031    0.0027 H         1 <0>         0.0521
     47 H4         -0.5459    1.8868   -0.8726 H         1 <0>         0.0680
     48 H5         -0.5289    1.8773    0.9072 H         1 <0>         0.0391
     49 H6          0.5123   -0.3556   -0.8948 H         1 <0>         0.0825
     50 H7          0.2319   -0.1594    2.1383 H         1 <0>         0.0509
     51 H8          0.7568   -1.6008    1.2356 H         1 <0>         0.0494
     52 H9          1.7647   -0.1336    1.2338 H         1 <0>         0.0557
     53 H10        -1.4190   -1.6203    0.0965 H         1 <0>         0.0713
     54 H11        -1.9701   -0.1109    0.8621 H         1 <0>         0.0747
     55 H12        -2.0716    0.9494   -1.4133 H         1 <0>         0.1193
     56 H13        -4.0268    0.5635    0.4009 H         1 <0>         0.4077
     57 H14        -6.1256    0.7081    1.5849 H         1 <0>         0.0776
     58 H15        -7.3699   -0.5246    1.2681 H         1 <0>         0.1049
     59 H16        -4.4856   -1.1369    2.0522 H         1 <0>         0.0719
     60 H17        -6.9808   -2.8819    1.8376 H         1 <0>         0.0624
     61 H18        -5.6066   -2.8920    0.7062 H         1 <0>         0.0609
     62 H19        -5.4115   -4.7294    2.3599 H         1 <0>         0.0606
     63 H20        -4.0904   -3.5524    2.5538 H         1 <0>         0.0600
     64 H21        -6.6600   -3.6311    4.1994 H         1 <0>         0.0611
     65 H22        -5.0573   -4.1750    4.7506 H         1 <0>         0.0601
     66 H23        -5.5389   -1.8760    5.5453 H         1 <0>         0.0615
     67 H24        -4.1648   -1.8861    4.4140 H         1 <0>         0.0606
     68 H25        -5.7341   -0.0386    3.8917 H         1 <0>         0.0626
     69 H26        -7.0552   -1.2156    3.6978 H         1 <0>         0.0637
     70 H27        -6.5216    1.4723   -0.8107 H         1 <0>         0.0963
     71 H28       -10.5611   -0.0844    1.0503 H         1 <0>         0.1069
     72 H29       -10.6684    0.3242   -0.6788 H         1 <0>         0.0631
     73 H30       -10.1787   -1.3127   -0.1799 H         1 <0>         0.0633
     74 H31        -5.2112    0.5447   -2.5795 H         1 <0>         0.3850
     75 H32        -1.8397   -1.6324   -2.7578 H         1 <0>         0.4096
     76 H33         1.9751   -1.6432   -3.0435 H         1 <0>         0.0975
     77 H34         0.5700   -2.7356   -3.0194 H         1 <0>         0.0904
     78 H35         0.1033   -4.2012   -4.9005 H         1 <0>         0.1226
     79 H36         1.0375   -5.4449   -6.8093 H         1 <0>         0.1225
     80 H37         3.1925   -4.7638   -7.7866 H         1 <0>         0.1213
     81 H38         4.4130   -2.8385   -6.8555 H         1 <0>         0.1207
     82 H39         3.4747   -1.5896   -4.9520 H         1 <0>         0.1155
     83 H40         1.0496   -0.4569   -6.9309 H         1 <0>         0.0958
     84 H41        -0.0682    0.8506   -6.4465 H         1 <0>         0.0927
     85 H42         1.7658    2.0066   -8.6337 H         1 <0>         0.1306
     86 H43         3.6487    3.5942   -8.5752 H         1 <0>         0.1329
     87 H44         4.9289    3.9181   -6.5001 H         1 <0>         0.1325
     88 H45         4.3376    2.6623   -4.4713 H         1 <0>         0.1312
@<TRIPOS>BOND
     1    1    2 1
     2    1   46 1
     3    1   47 1
     4    1   48 1
     5    2    3 1
     6    2    4 1
     7    2   49 1
     8    3   50 1
     9    3   51 1
    10    3   52 1
    11    4    5 1
    12    4   53 1
    13    4   54 1
    14    5    6 1
    15    5   24 1
    16    5   55 1
    17    6    7 2
    18    6    8 am
    19    8    9 1
    20    8   56 1
    21    9   10 1
    22    9   11 1
    23    9   18 1
    24   11   12 1
    25   11   57 1
    26   11   58 1
    27   12   17 1
    28   12   13 1
    29   12   59 1
    30   13   14 1
    31   13   60 1
    32   13   61 1
    33   14   15 1
    34   14   62 1
    35   14   63 1
    36   15   16 1
    37   15   64 1
    38   15   65 1
    39   16   17 1
    40   16   66 1
    41   16   67 1
    42   17   68 1
    43   17   69 1
    44   18   19 1
    45   18   23 1
    46   18   70 1
    47   19   20 2
    48   19   21 1
    49   21   22 1
    50   22   71 1
    51   22   72 1
    52   22   73 1
    53   23   74 1
    54   24   25 am
    55   24   75 1
    56   25   26 2
    57   25   27 1
    58   27   28 1
    59   27   29 1
    60   27   36 1
    61   29   30 1
    62   29   76 1
    63   29   77 1
    64   30   35 ar
    65   30   31 ar
    66   31   32 ar
    67   31   78 1
    68   32   33 ar
    69   32   79 1
    70   33   34 ar
    71   33   80 1
    72   34   35 ar
    73   34   81 1
    74   35   82 1
    75   36   44 am
    76   36   37 1
    77   37   38 1
    78   37   83 1
    79   37   84 1
    80   38   43 ar
    81   38   39 ar
    82   39   40 ar
    83   39   85 1
    84   40   41 ar
    85   40   86 1
    86   41   42 ar
    87   41   87 1
    88   42   43 ar
    89   42   88 1
    90   43   44 1
    91   44   45 2
@<TRIPOS>MOLECULE
CHEMBL168638__1
   88    91     0     0     0
SMALL
USER_CHARGES

@<TRIPOS>ATOM
      1 C1         -0.0187    1.5258    0.0104 C.3       1 <0>        -0.1367
      2 C2          0.0021   -0.0041    0.0020 C.3       1 <0>        -0.0905
      3 C3          0.7421   -0.5109    1.2415 C.3       1 <0>        -0.1466
      4 C4         -1.4333   -0.5336    0.0129 C.3       1 <0>        -0.1216
      5 C5         -2.1352   -0.1312   -1.2857 C.3       1 <0>         0.1336
      6 C6         -3.5829   -0.5453   -1.2234 C.2       1 <0>         0.5328
      7 O1         -4.0280   -1.3193   -2.0441 O.2       1 <0>        -0.5312
      8 N1         -4.3828   -0.0556   -0.2556 N.am      1 <0>        -0.7163
      9 C7         -5.7901   -0.4582   -0.1950 C.3       1 <0>         0.1210
     10 H1         -5.8845   -1.4976   -0.5093 H         1 <0>         0.1095
     11 C8         -6.3015   -0.3106    1.2394 C.3       1 <0>        -0.1292
     12 C9         -5.5601   -1.2927    2.1487 C.3       1 <0>        -0.0823
     13 C10        -5.9063   -2.7261    1.7410 C.3       1 <0>        -0.1176
     14 C11        -5.1649   -3.7082    2.6503 C.3       1 <0>        -0.1188
     15 C12        -5.5855   -3.4754    4.1028 C.3       1 <0>        -0.1210
     16 C13        -5.2393   -2.0419    4.5105 C.3       1 <0>        -0.1198
     17 C14        -5.9807   -1.0599    3.6012 C.3       1 <0>        -0.1144
     18 C15        -6.6160    0.4329   -1.1250 C.3       1 <0>         0.1053
     19 C16        -6.1123    0.2876   -2.5379 C.2       1 <0>         0.4751
     20 O2         -6.8239   -0.1958   -3.3863 O.2       1 <0>        -0.4822
     21 O3         -4.8730    0.6951   -2.8539 O.3       1 <0>        -0.3456
     22 C17        -4.4613    0.5271   -4.2120 C.3       1 <0>         0.0467
     23 O4         -7.9887    0.0402   -1.0660 O.3       1 <0>        -0.5334
     24 N2         -1.4855   -0.7957   -2.4182 N.am      1 <0>        -0.7110
     25 C18        -0.3957   -0.2445   -2.9881 C.2       1 <0>         0.4997
     26 O5          0.0472    0.8017   -2.5634 O.2       1 <0>        -0.4878
     27 C19         0.2727   -0.9281   -4.1531 C.3       1 <0>         0.1657
     28 H2         -0.4872   -1.3370   -4.8190 H         1 <0>         0.1131
     29 C20         1.1624   -2.0610   -3.6376 C.3       1 <0>        -0.0913
     30 C21         1.7340   -2.8221   -4.8060 C.ar      1 <0>        -0.0820
     31 C22         1.0484   -3.9024   -5.3292 C.ar      1 <0>        -0.1159
     32 C23         1.5728   -4.6005   -6.4010 C.ar      1 <0>        -0.1180
     33 C24         2.7825   -4.2180   -6.9497 C.ar      1 <0>        -0.1192
     34 C25         3.4677   -3.1371   -6.4270 C.ar      1 <0>        -0.1173
     35 C26         2.9412   -2.4364   -5.3580 C.ar      1 <0>        -0.1026
     36 N3          1.0917    0.0420   -4.8841 N.am      1 <0>        -0.6018
     37 C27         0.9198    0.4168   -6.2923 C.3       1 <0>         0.1458
     38 C28         1.9872    1.4398   -6.5902 C.ar      1 <0>        -0.0827
     39 C29         2.3254    2.1472   -7.7207 C.ar      1 <0>        -0.1030
     40 C30         3.3840    3.0393   -7.6873 C.ar      1 <0>        -0.0884
     41 C31         4.1039    3.2214   -6.5196 C.ar      1 <0>        -0.1261
     42 C32         3.7732    2.5172   -5.3806 C.ar      1 <0>        -0.0471
     43 C33         2.7068    1.6162   -5.4062 C.ar      1 <0>        -0.1528
     44 C34         2.1211    0.7398   -4.3738 C.2       1 <0>         0.5695
     45 O6          2.5147    0.6586   -3.2267 O.2       1 <0>        -0.4953
     46 H3          1.0039    1.9031    0.0027 H         1 <0>         0.0512
     47 H4         -0.5459    1.8868   -0.8726 H         1 <0>         0.0686
     48 H5         -0.5289    1.8773    0.9072 H         1 <0>         0.0386
     49 H6          0.5123   -0.3556   -0.8948 H         1 <0>         0.0820
     50 H7          0.2319   -0.1594    2.1383 H         1 <0>         0.0505
     51 H8          0.7568   -1.6008    1.2356 H         1 <0>         0.0490
     52 H9          1.7647   -0.1336    1.2338 H         1 <0>         0.0552
     53 H10        -1.4190   -1.6203    0.0965 H         1 <0>         0.0698
     54 H11        -1.9701   -0.1109    0.8621 H         1 <0>         0.0734
     55 H12        -2.0716    0.9494   -1.4133 H         1 <0>         0.1189
     56 H13        -4.0268    0.5635    0.4009 H         1 <0>         0.4054
     57 H14        -6.1256    0.7081    1.5849 H         1 <0>         0.0787
     58 H15        -7.3699   -0.5246    1.2681 H         1 <0>         0.0849
     59 H16        -4.4856   -1.1369    2.0522 H         1 <0>         0.0750
     60 H17        -6.9808   -2.8819    1.8376 H         1 <0>         0.0638
     61 H18        -5.6066   -2.8920    0.7062 H         1 <0>         0.0626
     62 H19        -5.4115   -4.7294    2.3599 H         1 <0>         0.0612
     63 H20        -4.0904   -3.5524    2.5538 H         1 <0>         0.0601
     64 H21        -6.6600   -3.6311    4.1994 H         1 <0>         0.0614
     65 H22        -5.0573   -4.1750    4.7506 H         1 <0>         0.0604
     66 H23        -5.5389   -1.8760    5.5453 H         1 <0>         0.0618
     67 H24        -4.1648   -1.8861    4.4140 H         1 <0>         0.0611
     68 H25        -5.7341   -0.0386    3.8917 H         1 <0>         0.0626
     69 H26        -7.0552   -1.2156    3.6978 H         1 <0>         0.0636
     70 H27        -6.5216    1.4723   -0.8107 H         1 <0>         0.0953
     71 H28        -3.4427    0.8962   -4.3311 H         1 <0>         0.0933
     72 H29        -4.4978   -0.5301   -4.4745 H         1 <0>         0.0661
     73 H30        -5.1296    1.0872   -4.8661 H         1 <0>         0.0553
     74 H31        -8.3796    0.1083   -0.1841 H         1 <0>         0.3904
     75 H32        -1.8397   -1.6324   -2.7578 H         1 <0>         0.4078
     76 H33         1.9751   -1.6432   -3.0435 H         1 <0>         0.0975
     77 H34         0.5700   -2.7356   -3.0194 H         1 <0>         0.0902
     78 H35         0.1033   -4.2012   -4.9005 H         1 <0>         0.1222
     79 H36         1.0375   -5.4449   -6.8093 H         1 <0>         0.1224
     80 H37         3.1925   -4.7638   -7.7866 H         1 <0>         0.1212
     81 H38         4.4130   -2.8385   -6.8555 H         1 <0>         0.1207
     82 H39         3.4747   -1.5896   -4.9520 H         1 <0>         0.1155
     83 H40         1.0496   -0.4569   -6.9309 H         1 <0>         0.0954
     84 H41        -0.0682    0.8506   -6.4465 H         1 <0>         0.0916
     85 H42         1.7658    2.0066   -8.6337 H         1 <0>         0.1304
     86 H43         3.6487    3.5942   -8.5752 H         1 <0>         0.1328
     87 H44         4.9289    3.9181   -6.5001 H         1 <0>         0.1326
     88 H45         4.3376    2.6623   -4.4713 H         1 <0>         0.1312
@<TRIPOS>BOND
     1    1    2 1
     2    1   46 1
     3    1   47 1
     4    1   48 1
     5    2    3 1
     6    2    4 1
     7    2   49 1
     8    3   50 1
     9    3   51 1
    10    3   52 1
    11    4    5 1
    12    4   53 1
    13    4   54 1
    14    5    6 1
    15    5   24 1
    16    5   55 1
    17    6    7 2
    18    6    8 am
    19    8    9 1
    20    8   56 1
    21    9   10 1
    22    9   11 1
    23    9   18 1
    24   11   12 1
    25   11   57 1
    26   11   58 1
    27   12   17 1
    28   12   13 1
    29   12   59 1
    30   13   14 1
    31   13   60 1
    32   13   61 1
    33   14   15 1
    34   14   62 1
    35   14   63 1
    36   15   16 1
    37   15   64 1
    38   15   65 1
    39   16   17 1
    40   16   66 1
    41   16   67 1
    42   17   68 1
    43   17   69 1
    44   18   19 1
    45   18   23 1
    46   18   70 1
    47   19   20 2
    48   19   21 1
    49   21   22 1
    50   22   71 1
    51   22   72 1
    52   22   73 1
    53   23   74 1
    54   24   25 am
    55   24   75 1
    56   25   26 2
    57   25   27 1
    58   27   28 1
    59   27   29 1
    60   27   36 1
    61   29   30 1
    62   29   76 1
    63   29   77 1
    64   30   35 ar
    65   30   31 ar
    66   31   32 ar
    67   31   78 1
    68   32   33 ar
    69   32   79 1
    70   33   34 ar
    71   33   80 1
    72   34   35 ar
    73   34   81 1
    74   35   82 1
    75   36   44 am
    76   36   37 1
    77   37   38 1
    78   37   83 1
    79   37   84 1
    80   38   43 ar
    81   38   39 ar
    82   39   40 ar
    83   39   85 1
    84   40   41 ar
    85   40   86 1
    86   41   42 ar
    87   41   87 1
    88   42   43 ar
    89   42   88 1
    90   43   44 1
    91   44   45 2
@<TRIPOS>MOLECULE
CHEMBL168638__2
   88    91     0     0     0
SMALL
USER_CHARGES

@<TRIPOS>ATOM
      1 C1         -0.8883   -2.6135   -0.4490 C.3       1 <0>        -0.1549
      2 C2         -1.7216   -1.7913    0.5361 C.3       1 <0>        -0.1051
      3 C3         -1.2458   -2.0702    1.9633 C.3       1 <0>        -0.1467
      4 C4         -1.5565   -0.3024    0.2253 C.3       1 <0>        -0.1228
      5 C5         -2.1822    0.0068   -1.1363 C.3       1 <0>         0.1279
      6 C6         -3.6713   -0.2142   -1.0666 C.2       1 <0>         0.5078
      7 O1         -4.4198    0.7324   -0.9457 O.2       1 <0>        -0.5111
      8 N1         -4.1713   -1.4637   -1.1388 N.am      1 <0>        -0.7207
      9 C7         -5.6209   -1.6715   -1.1774 C.3       1 <0>         0.1171
     10 H1         -6.0893   -0.8614   -1.7364 H         1 <0>         0.1088
     11 C8         -5.9268   -3.0059   -1.8605 C.3       1 <0>        -0.1380
     12 C9         -5.4879   -2.9417   -3.3248 C.3       1 <0>        -0.0834
     13 C10        -6.3340   -1.9044   -4.0658 C.3       1 <0>        -0.1172
     14 C11        -5.8951   -1.8402   -5.5301 C.3       1 <0>        -0.1194
     15 C12        -6.0855   -3.2121   -6.1802 C.3       1 <0>        -0.1202
     16 C13        -5.2394   -4.2494   -5.4392 C.3       1 <0>        -0.1204
     17 C14        -5.6783   -4.3136   -3.9749 C.3       1 <0>        -0.1125
     18 C15        -6.1716   -1.6912    0.2499 C.3       1 <0>         0.1063
     19 C16        -7.6628   -1.9049    0.2102 C.2       1 <0>         0.4650
     20 O2         -8.4081   -1.0364    0.5974 O.2       1 <0>        -0.4719
     21 O3         -8.1630   -3.0603   -0.2554 O.3       1 <0>        -0.3473
     22 C17        -9.5857   -3.1945   -0.2643 C.3       1 <0>         0.0302
     23 O4         -5.8859   -0.4448    0.8879 O.3       1 <0>        -0.5247
     24 N2         -1.9117    1.4018   -1.4926 N.am      1 <0>        -0.7155
     25 C18        -0.7841    1.7207   -2.1584 C.2       1 <0>         0.5040
     26 O5         -0.0383    0.8448   -2.5425 O.2       1 <0>        -0.4985
     27 C19        -0.4500    3.1657   -2.4257 C.3       1 <0>         0.1667
     28 H2         -0.6998    3.7644   -1.5498 H         1 <0>         0.1167
     29 C20        -1.2550    3.6613   -3.6287 C.3       1 <0>        -0.0929
     30 C21        -1.0147    5.1365   -3.8207 C.ar      1 <0>        -0.0820
     31 C22        -1.8259    6.0575   -3.1847 C.ar      1 <0>        -0.1154
     32 C23        -1.6054    7.4108   -3.3608 C.ar      1 <0>        -0.1178
     33 C24        -0.5734    7.8430   -4.1727 C.ar      1 <0>        -0.1191
     34 C25         0.2384    6.9220   -4.8080 C.ar      1 <0>        -0.1174
     35 C26         0.0205    5.5688   -4.6285 C.ar      1 <0>        -0.1029
     36 N3          0.9815    3.2913   -2.7108 N.am      1 <0>        -0.6026
     37 C27         1.9398    4.0909   -1.9392 C.3       1 <0>         0.1457
     38 C28         3.2786    3.9074   -2.6090 C.ar      1 <0>        -0.0824
     39 C29         4.5376    4.3975   -2.3491 C.ar      1 <0>        -0.1027
     40 C30         5.5997    4.0421   -3.1634 C.ar      1 <0>        -0.0881
     41 C31         5.3987    3.1950   -4.2390 C.ar      1 <0>        -0.1260
     42 C32         4.1405    2.6980   -4.5085 C.ar      1 <0>        -0.0469
     43 C33         3.0647    3.0514   -3.6918 C.ar      1 <0>        -0.1531
     44 C34         1.6348    2.6883   -3.7191 C.2       1 <0>         0.5685
     45 O6          1.1207    1.9515   -4.5377 O.2       1 <0>        -0.4977
     46 H3         -0.9276   -3.6660   -0.1683 H         1 <0>         0.0610
     47 H4         -1.2894   -2.4906   -1.4551 H         1 <0>         0.0541
     48 H5          0.1458   -2.2696   -0.4256 H         1 <0>         0.0629
     49 H6         -2.7718   -2.0677    0.4428 H         1 <0>         0.0711
     50 H7         -0.1956   -1.7938    2.0567 H         1 <0>         0.0581
     51 H8         -1.8395   -1.4845    2.6652 H         1 <0>         0.0563
     52 H9         -1.3634   -3.1309    2.1848 H         1 <0>         0.0595
     53 H10        -2.0536    0.2870    0.9958 H         1 <0>         0.0750
     54 H11        -0.4961   -0.0512    0.2033 H         1 <0>         0.0843
     55 H12        -1.7522   -0.6511   -1.8915 H         1 <0>         0.1180
     56 H13        -3.5712   -2.2254   -1.1651 H         1 <0>         0.4079
     57 H14        -5.3865   -3.8056   -1.3540 H         1 <0>         0.0774
     58 H15        -6.9978   -3.2026   -1.8105 H         1 <0>         0.1057
     59 H16        -4.4369   -2.6576   -3.3769 H         1 <0>         0.0710
     60 H17        -7.3850   -2.1885   -4.0136 H         1 <0>         0.0629
     61 H18        -6.1984   -0.9270   -3.6026 H         1 <0>         0.0601
     62 H19        -6.4979   -1.1012   -6.0580 H         1 <0>         0.0608
     63 H20        -4.8441   -1.5561   -5.5822 H         1 <0>         0.0603
     64 H21        -7.1365   -3.4961   -6.1280 H         1 <0>         0.0611
     65 H22        -5.7728   -3.1663   -7.2234 H         1 <0>         0.0604
     66 H23        -5.3750   -5.2267   -5.9023 H         1 <0>         0.0618
     67 H24        -4.1884   -3.9653   -5.4913 H         1 <0>         0.0609
     68 H25        -5.0755   -5.0526   -3.4470 H         1 <0>         0.0626
     69 H26        -6.7293   -4.5977   -3.9227 H         1 <0>         0.0640
     70 H27        -5.7032   -2.5013    0.8089 H         1 <0>         0.0954
     71 H28        -9.8559   -4.1721   -0.6633 H         1 <0>         0.1068
     72 H29        -9.9659   -3.0995    0.7528 H         1 <0>         0.0631
     73 H30       -10.0203   -2.4142   -0.8890 H         1 <0>         0.0632
     74 H31        -4.9425   -0.2413    0.9488 H         1 <0>         0.3852
     75 H32        -2.5440    2.0959   -1.2493 H         1 <0>         0.4109
     76 H33        -0.9411    3.1226   -4.5228 H         1 <0>         0.0970
     77 H34        -2.3163    3.4859   -3.4528 H         1 <0>         0.0920
     78 H35        -2.6321    5.7198   -2.5504 H         1 <0>         0.1232
     79 H36        -2.2396    8.1303   -2.8644 H         1 <0>         0.1228
     80 H37        -0.4016    8.9002   -4.3109 H         1 <0>         0.1214
     81 H38         1.0444    7.2597   -5.4426 H         1 <0>         0.1208
     82 H39         0.6571    4.8492   -5.1219 H         1 <0>         0.1153
     83 H40         1.6520    5.1420   -1.9589 H         1 <0>         0.0966
     84 H41         1.9835    3.7332   -0.9105 H         1 <0>         0.0927
     85 H42         4.6973    5.0594   -1.5108 H         1 <0>         0.1309
     86 H43         6.5876    4.4273   -2.9585 H         1 <0>         0.1332
     87 H44         6.2310    2.9219   -4.8708 H         1 <0>         0.1330
     88 H45         3.9880    2.0371   -5.3490 H         1 <0>         0.1315
@<TRIPOS>BOND
     1    1    2 1
     2    1   46 1
     3    1   47 1
     4    1   48 1
     5    2    3 1
     6    2    4 1
     7    2   49 1
     8    3   50 1
     9    3   51 1
    10    3   52 1
    11    4    5 1
    12    4   53 1
    13    4   54 1
    14    5    6 1
    15    5   24 1
    16    5   55 1
    17    6    7 2
    18    6    8 am
    19    8    9 1
    20    8   56 1
    21    9   10 1
    22    9   11 1
    23    9   18 1
    24   11   12 1
    25   11   57 1
    26   11   58 1
    27   12   17 1
    28   12   13 1
    29   12   59 1
    30   13   14 1
    31   13   60 1
    32   13   61 1
    33   14   15 1
    34   14   62 1
    35   14   63 1
    36   15   16 1
    37   15   64 1
    38   15   65 1
    39   16   17 1
    40   16   66 1
    41   16   67 1
    42   17   68 1
    43   17   69 1
    44   18   19 1
    45   18   23 1
    46   18   70 1
    47   19   20 2
    48   19   21 1
    49   21   22 1
    50   22   71 1
    51   22   72 1
    52   22   73 1
    53   23   74 1
    54   24   25 am
    55   24   75 1
    56   25   26 2
    57   25   27 1
    58   27   28 1
    59   27   29 1
    60   27   36 1
    61   29   30 1
    62   29   76 1
    63   29   77 1
    64   30   35 ar
    65   30   31 ar
    66   31   32 ar
    67   31   78 1
    68   32   33 ar
    69   32   79 1
    70   33   34 ar
    71   33   80 1
    72   34   35 ar
    73   34   81 1
    74   35   82 1
    75   36   44 am
    76   36   37 1
    77   37   38 1
    78   37   83 1
    79   37   84 1
    80   38   43 ar
    81   38   39 ar
    82   39   40 ar
    83   39   85 1
    84   40   41 ar
    85   40   86 1
    86   41   42 ar
    87   41   87 1
    88   42   43 ar
    89   42   88 1
    90   43   44 1
    91   44   45 2
@<TRIPOS>MOLECULE
CHEMBL168638__3
   88    91     0     0     0
SMALL
USER_CHARGES

@<TRIPOS>ATOM
      1 C1         -0.5157   -2.5057   -0.4683 C.3       1 <0>        -0.1558
      2 C2         -1.4117   -1.7885    0.5436 C.3       1 <0>        -0.1033
      3 C3         -0.8860   -2.0398    1.9583 C.3       1 <0>        -0.1436
      4 C4         -1.4043   -0.2858    0.2561 C.3       1 <0>        -0.1176
      5 C5         -2.0590   -0.0230   -1.1015 C.3       1 <0>         0.1305
      6 C6         -3.5151   -0.4066   -1.0397 C.2       1 <0>         0.5344
      7 O1         -4.3657    0.4538   -0.9550 O.2       1 <0>        -0.5286
      8 N1         -3.8720   -1.7056   -1.0784 N.am      1 <0>        -0.7173
      9 C7         -5.2894   -2.0757   -1.0928 C.3       1 <0>         0.1186
     10 H1         -5.8523   -1.3362   -1.6623 H         1 <0>         0.1091
     11 C8         -5.4508   -3.4512   -1.7432 C.3       1 <0>        -0.1294
     12 C9         -5.0385   -3.3712   -3.2144 C.3       1 <0>        -0.0835
     13 C10        -6.0042   -2.4525   -3.9655 C.3       1 <0>        -0.1171
     14 C11        -5.5918   -2.3725   -5.4367 C.3       1 <0>        -0.1198
     15 C12        -5.6339   -3.7714   -6.0549 C.3       1 <0>        -0.1205
     16 C13        -4.6681   -4.6901   -5.3038 C.3       1 <0>        -0.1204
     17 C14        -5.0805   -4.7701   -3.8326 C.3       1 <0>        -0.1137
     18 C15        -5.8183   -2.1248    0.3421 C.3       1 <0>         0.1059
     19 C16        -5.6593   -0.7701    0.9827 C.2       1 <0>         0.4770
     20 O2         -6.6359   -0.1353    1.3038 O.2       1 <0>        -0.4832
     21 O3         -4.4327   -0.2686    1.1966 O.3       1 <0>        -0.3420
     22 C17        -4.3565    1.0208    1.8078 C.3       1 <0>         0.0419
     23 O4         -7.2008   -2.4858    0.3281 O.3       1 <0>        -0.5334
     24 N2         -1.9423    1.3992   -1.4329 N.am      1 <0>        -0.7148
     25 C18        -0.8615    1.8491   -2.1008 C.2       1 <0>         0.5035
     26 O5         -0.0300    1.0651   -2.5069 O.2       1 <0>        -0.4990
     27 C19        -0.6863    3.3261   -2.3429 C.3       1 <0>         0.1668
     28 H2         -0.9906    3.8786   -1.4539 H         1 <0>         0.1154
     29 C20        -1.5509    3.7544   -3.5303 C.3       1 <0>        -0.0929
     30 C21        -1.4714    5.2501   -3.6960 C.ar      1 <0>        -0.0816
     31 C22        -2.3705    6.0673   -3.0365 C.ar      1 <0>        -0.1157
     32 C23        -2.2976    7.4393   -3.1885 C.ar      1 <0>        -0.1179
     33 C24        -1.3253    7.9942   -3.9995 C.ar      1 <0>        -0.1192
     34 C25        -0.4257    7.1771   -4.6582 C.ar      1 <0>        -0.1172
     35 C26        -0.4959    5.8053   -4.5029 C.ar      1 <0>        -0.1029
     36 N3          0.7208    3.6094   -2.6361 N.am      1 <0>        -0.6025
     37 C27         1.5953    4.4928   -1.8564 C.3       1 <0>         0.1458
     38 C28         2.9398    4.4659   -2.5394 C.ar      1 <0>        -0.0825
     39 C29         4.1415    5.0832   -2.2794 C.ar      1 <0>        -0.1027
     40 C30         5.2279    4.8583   -3.1080 C.ar      1 <0>        -0.0882
     41 C31         5.1086    4.0142   -4.1981 C.ar      1 <0>        -0.1259
     42 C32         3.9083    3.3904   -4.4677 C.ar      1 <0>        -0.0470
     43 C33         2.8085    3.6118   -3.6366 C.ar      1 <0>        -0.1528
     44 C34         1.4255    3.0982   -3.6603 C.2       1 <0>         0.5685
     45 O6          0.9855    2.3256   -4.4891 O.2       1 <0>        -0.4975
     46 H3         -0.4458   -3.5617   -0.2073 H         1 <0>         0.0595
     47 H4         -0.9422   -2.4056   -1.4663 H         1 <0>         0.0527
     48 H5          0.4792   -2.0609   -0.4520 H         1 <0>         0.0615
     49 H6         -2.4297   -2.1692    0.4613 H         1 <0>         0.0777
     50 H7          0.1321   -1.6591    2.0405 H         1 <0>         0.0551
     51 H8         -1.5243   -1.5288    2.6791 H         1 <0>         0.0556
     52 H9         -0.8912   -3.1103    2.1631 H         1 <0>         0.0571
     53 H10        -1.9607    0.2358    1.0348 H         1 <0>         0.0763
     54 H11        -0.3762    0.0759    0.2398 H         1 <0>         0.0776
     55 H12        -1.5591   -0.6166   -1.8670 H         1 <0>         0.1145
     56 H13        -3.1904   -2.3955   -1.0968 H         1 <0>         0.4058
     57 H14        -4.8182   -4.1735   -1.2273 H         1 <0>         0.0784
     58 H15        -6.4922   -3.7657   -1.6743 H         1 <0>         0.0856
     59 H16        -4.0267   -2.9721   -3.2870 H         1 <0>         0.0740
     60 H17        -7.0159   -2.8515   -3.8929 H         1 <0>         0.0643
     61 H18        -5.9742   -1.4558   -3.5251 H         1 <0>         0.0619
     62 H19        -6.2798   -1.7180   -5.9718 H         1 <0>         0.0615
     63 H20        -4.5801   -1.9734   -5.5093 H         1 <0>         0.0604
     64 H21        -6.6456   -4.1705   -5.9823 H         1 <0>         0.0614
     65 H22        -5.3401   -3.7144   -7.1030 H         1 <0>         0.0607
     66 H23        -4.6981   -5.6868   -5.7442 H         1 <0>         0.0622
     67 H24        -3.6564   -4.2911   -5.3764 H         1 <0>         0.0614
     68 H25        -4.3925   -5.4246   -3.2975 H         1 <0>         0.0626
     69 H26        -6.0922   -5.1692   -3.7600 H         1 <0>         0.0639
     70 H27        -5.2554   -2.8644    0.9116 H         1 <0>         0.0945
     71 H28        -3.3111    1.3071    1.9230 H         1 <0>         0.0955
     72 H29        -4.8661    1.7514    1.1796 H         1 <0>         0.0669
     73 H30        -4.8342    0.9876    2.7870 H         1 <0>         0.0555
     74 H31        -7.3780   -3.3486   -0.0710 H         1 <0>         0.3902
     75 H32        -2.6429    2.0171   -1.1716 H         1 <0>         0.4087
     76 H33        -1.1895    3.2687   -4.4367 H         1 <0>         0.0970
     77 H34        -2.5857    3.4633   -3.3500 H         1 <0>         0.0918
     78 H35        -3.1301    5.6338   -2.4029 H         1 <0>         0.1226
     79 H36        -3.0004    8.0777   -2.6739 H         1 <0>         0.1226
     80 H37        -1.2688    9.0661   -4.1188 H         1 <0>         0.1214
     81 H38         0.3337    7.6106   -5.2921 H         1 <0>         0.1209
     82 H39         0.2093    5.1671   -5.0145 H         1 <0>         0.1154
     83 H40         1.1966    5.5073   -1.8539 H         1 <0>         0.0962
     84 H41         1.6865    4.1232   -0.8350 H         1 <0>         0.0925
     85 H42         4.2374    5.7430   -1.4297 H         1 <0>         0.1308
     86 H43         6.1709    5.3433   -2.9031 H         1 <0>         0.1332
     87 H44         5.9594    3.8434   -4.8410 H         1 <0>         0.1330
     88 H45         3.8195    2.7324   -5.3195 H         1 <0>         0.1315
@<TRIPOS>BOND
     1    1    2 1
     2    1   46 1
     3    1   47 1
     4    1   48 1
     5    2    3 1
     6    2    4 1
     7    2   49 1
     8    3   50 1
     9    3   51 1
    10    3   52 1
    11    4    5 1
    12    4   53 1
    13    4   54 1
    14    5    6 1
    15    5   24 1
    16    5   55 1
    17    6    7 2
    18    6    8 am
    19    8    9 1
    20    8   56 1
    21    9   10 1
    22    9   11 1
    23    9   18 1
    24   11   12 1
    25   11   57 1
    26   11   58 1
    27   12   17 1
    28   12   13 1
    29   12   59 1
    30   13   14 1
    31   13   60 1
    32   13   61 1
    33   14   15 1
    34   14   62 1
    35   14   63 1
    36   15   16 1
    37   15   64 1
    38   15   65 1
    39   16   17 1
    40   16   66 1
    41   16   67 1
    42   17   68 1
    43   17   69 1
    44   18   19 1
    45   18   23 1
    46   18   70 1
    47   19   20 2
    48   19   21 1
    49   21   22 1
    50   22   71 1
    51   22   72 1
    52   22   73 1
    53   23   74 1
    54   24   25 am
    55   24   75 1
    56   25   26 2
    57   25   27 1
    58   27   28 1
    59   27   29 1
    60   27   36 1
    61   29   30 1
    62   29   76 1
    63   29   77 1
    64   30   35 ar
    65   30   31 ar
    66   31   32 ar
    67   31   78 1
    68   32   33 ar
    69   32   79 1
    70   33   34 ar
    71   33   80 1
    72   34   35 ar
    73   34   81 1
    74   35   82 1
    75   36   44 am
    76   36   37 1
    77   37   38 1
    78   37   83 1
    79   37   84 1
    80   38   43 ar
    81   38   39 ar
    82   39   40 ar
    83   39   85 1
    84   40   41 ar
    85   40   86 1
    86   41   42 ar
    87   41   87 1
    88   42   43 ar
    89   42   88 1
    90   43   44 1
    91   44   45 2
@<TRIPOS>MOLECULE
CHEMBL299951
   78    81     0     0     0
SMALL
USER_CHARGES

@<TRIPOS>ATOM
      1 C1         -0.0187    1.5258    0.0104 C.3       1 <0>        -0.1448
      2 C2          0.0021   -0.0041    0.0020 C.3       1 <0>        -0.1282
      3 C3          0.7421   -0.5109    1.2415 C.3       1 <0>        -0.1495
      4 C4         -1.4333   -0.5336    0.0129 C.3       1 <0>         0.1141
      5 H1         -1.9435   -0.1821    0.9097 H         1 <0>         0.1052
      6 C5         -1.4126   -2.0635    0.0045 C.3       1 <0>        -0.1869
      7 C6         -2.8413   -2.5937    0.1410 C.3       1 <0>         0.1042
      8 H2         -3.4650   -2.1632   -0.6424 H         1 <0>         0.1193
      9 C7         -2.8345   -4.1178    0.0076 C.3       1 <0>         0.1132
     10 H3         -2.4357   -4.3954   -0.9680 H         1 <0>         0.1013
     11 C8         -4.2632   -4.6480    0.1442 C.3       1 <0>        -0.1219
     12 C9         -4.2743   -6.1562   -0.1127 C.3       1 <0>        -0.0814
     13 C10        -3.8783   -6.4291   -1.5652 C.3       1 <0>        -0.1044
     14 C11        -3.8894   -7.9373   -1.8221 C.3       1 <0>        -0.1106
     15 C12        -5.2931   -8.4884   -1.5640 C.3       1 <0>        -0.1207
     16 C13        -5.6891   -8.2156   -0.1116 C.3       1 <0>        -0.1169
     17 C14        -5.6780   -6.7073    0.1454 C.3       1 <0>        -0.1153
     18 N1         -1.9962   -4.6965    1.0606 N.am      1 <0>        -0.7174
     19 C15        -1.4271   -5.9049    0.8810 C.2       1 <0>         0.5132
     20 O1         -1.6090   -6.5133   -0.1523 O.2       1 <0>        -0.5153
     21 C16        -0.5648   -6.5001    1.9641 C.3       1 <0>         0.1391
     22 H4         -1.1540   -6.6191    2.8734 H         1 <0>         0.1260
     23 C17         0.6191   -5.5715    2.2414 C.3       1 <0>        -0.0371
     24 C18         1.4130   -6.1039    3.4065 C.2       1 <0>         0.0045
     25 C19         2.7323   -6.3739    3.4078 C.2       1 <0>        -0.0564
     26 N2          3.0412   -6.8338    4.6595 N.pl3     1 <0>        -0.5702
     27 H5          3.9169   -7.1115    4.9708 H         1 <0>         0.4176
     28 C20         1.8991   -6.8287    5.3800 C.2       1 <0>         0.1961
     29 N3          0.9305   -6.3863    4.6257 N.2       1 <0>        -0.4534
     30 N4         -0.0682   -7.8080    1.5294 N.am      1 <0>        -0.7102
     31 C21         0.2785   -8.7352    2.4441 C.2       1 <0>         0.5818
     32 O2          0.1790   -8.4860    3.6306 O.2       1 <0>        -0.4812
     33 C22         0.7769  -10.0479    2.0078 C.2       1 <0>         0.0299
     34 C23         1.1510  -11.0619    2.8312 C.2       1 <0>        -0.0982
     35 C24         1.5656  -12.1426    2.0176 C.ar      1 <0>        -0.1652
     36 C25         2.0472  -13.4302    2.2900 C.ar      1 <0>        -0.0166
     37 C26         2.3620  -14.2417    1.2312 C.ar      1 <0>        -0.2036
     38 C27         2.1980  -13.7737   -0.0641 C.ar      1 <0>         0.1550
     39 N5          1.7448  -12.5622   -0.3069 N.ar      1 <0>        -0.4999
     40 H6          0.7339   -9.9114   -0.0874 H         1 <0>         0.4213
     41 C28         1.4233  -11.7311    0.6765 C.ar      1 <0>         0.2975
     42 N6          0.9340  -10.4495    0.6945 N.pl3     1 <0>        -0.5637
     43 O3         -3.3642   -2.2297    1.4201 O.3       1 <0>        -0.5474
     44 O4         -2.1245   -0.0603   -1.1448 O.3       1 <0>        -0.5567
     45 H7          1.0039    1.9031    0.0027 H         1 <0>         0.0529
     46 H8         -0.5459    1.8868   -0.8726 H         1 <0>         0.0612
     47 H9         -0.5289    1.8773    0.9072 H         1 <0>         0.0549
     48 H10         0.5123   -0.3556   -0.8948 H         1 <0>         0.0696
     49 H11         0.2319   -0.1594    2.1383 H         1 <0>         0.0580
     50 H12         0.7568   -1.6008    1.2356 H         1 <0>         0.0569
     51 H13         1.7647   -0.1336    1.2338 H         1 <0>         0.0572
     52 H14        -0.9823   -2.4159   -0.9330 H         1 <0>         0.0765
     53 H15        -0.8102   -2.4233    0.8386 H         1 <0>         0.0804
     54 H16        -4.6303   -4.4482    1.1509 H         1 <0>         0.0710
     55 H17        -4.9062   -4.1510   -0.5823 H         1 <0>         0.0716
     56 H18        -3.5641   -6.6438    0.5551 H         1 <0>         0.0739
     57 H19        -4.5885   -5.9416   -2.2331 H         1 <0>         0.0462
     58 H20        -2.8783   -6.0365   -1.7491 H         1 <0>         0.0766
     59 H21        -3.6073   -8.1317   -2.8569 H         1 <0>         0.0527
     60 H22        -3.1792   -8.4249   -1.1542 H         1 <0>         0.0614
     61 H23        -6.0033   -8.0009   -2.2319 H         1 <0>         0.0579
     62 H24        -5.3010   -9.5629   -1.7471 H         1 <0>         0.0555
     63 H25        -6.6891   -8.6081    0.0723 H         1 <0>         0.0573
     64 H26        -4.9789   -8.7031    0.5563 H         1 <0>         0.0569
     65 H27        -5.9601   -6.5129    1.1801 H         1 <0>         0.0562
     66 H28        -6.3882   -6.2198   -0.5225 H         1 <0>         0.0585
     67 H29        -1.8508   -4.2099    1.8870 H         1 <0>         0.3971
     68 H30         1.2572   -5.5228    1.3590 H         1 <0>         0.0800
     69 H31         0.2504   -4.5736    2.4787 H         1 <0>         0.0849
     70 H32         3.4153   -6.2516    2.5801 H         1 <0>         0.1656
     71 H33         1.8039   -7.1360    6.4110 H         1 <0>         0.2016
     72 H34         0.0111   -8.0067    0.5833 H         1 <0>         0.4025
     73 H35         1.1351  -11.0458    3.9110 H         1 <0>         0.1580
     74 H36         2.1673  -13.7737    3.3069 H         1 <0>         0.1377
     75 H37         2.7361  -15.2399    1.4046 H         1 <0>         0.1407
     76 H38         2.4486  -14.4188   -0.8933 H         1 <0>         0.1646
     77 H39        -2.8577   -2.5792    2.1660 H         1 <0>         0.3668
     78 H40        -1.7251   -0.3356   -1.9813 H         1 <0>         0.3713
@<TRIPOS>BOND
     1    1    2 1
     2    1   45 1
     3    1   46 1
     4    1   47 1
     5    2    3 1
     6    2    4 1
     7    2   48 1
     8    3   49 1
     9    3   50 1
    10    3   51 1
    11    4    5 1
    12    4    6 1
    13    4   44 1
    14    6    7 1
    15    6   52 1
    16    6   53 1
    17    7    8 1
    18    7    9 1
    19    7   43 1
    20    9   10 1
    21    9   11 1
    22    9   18 1
    23   11   12 1
    24   11   54 1
    25   11   55 1
    26   12   17 1
    27   12   13 1
    28   12   56 1
    29   13   14 1
    30   13   57 1
    31   13   58 1
    32   14   15 1
    33   14   59 1
    34   14   60 1
    35   15   16 1
    36   15   61 1
    37   15   62 1
    38   16   17 1
    39   16   63 1
    40   16   64 1
    41   17   65 1
    42   17   66 1
    43   18   19 am
    44   18   67 1
    45   19   20 2
    46   19   21 1
    47   21   22 1
    48   21   23 1
    49   21   30 1
    50   23   24 1
    51   23   68 1
    52   23   69 1
    53   24   29 1
    54   24   25 2
    55   25   26 1
    56   25   70 1
    57   26   27 1
    58   26   28 1
    59   28   29 2
    60   28   71 1
    61   30   31 am
    62   30   72 1
    63   31   32 2
    64   31   33 1
    65   33   42 1
    66   33   34 2
    67   34   35 1
    68   34   73 1
    69   35   36 ar
    70   35   41 ar
    71   36   37 ar
    72   36   74 1
    73   37   38 ar
    74   37   75 1
    75   38   39 ar
    76   38   76 1
    77   39   41 ar
    78   40   42 1
    79   41   42 1
    80   43   77 1
    81   44   78 1
@<TRIPOS>MOLECULE
CHEMBL299951__1
   79    82     0     0     0
SMALL
USER_CHARGES

@<TRIPOS>ATOM
      1 C1         -0.0187    1.5258    0.0104 C.3       1 <0>        -0.1471
      2 C2          0.0021   -0.0041    0.0020 C.3       1 <0>        -0.1289
      3 C3          0.7421   -0.5109    1.2415 C.3       1 <0>        -0.1471
      4 C4         -1.4333   -0.5336    0.0129 C.3       1 <0>         0.1131
      5 H1         -1.9435   -0.1821    0.9097 H         1 <0>         0.1054
      6 C5         -1.4126   -2.0635    0.0045 C.3       1 <0>        -0.1847
      7 C6         -2.8413   -2.5937    0.1410 C.3       1 <0>         0.1021
      8 H2         -3.4650   -2.1632   -0.6424 H         1 <0>         0.1241
      9 C7         -2.8345   -4.1178    0.0076 C.3       1 <0>         0.1130
     10 H3         -2.4357   -4.3954   -0.9680 H         1 <0>         0.1053
     11 C8         -4.2632   -4.6480    0.1442 C.3       1 <0>        -0.1245
     12 C9         -4.2743   -6.1562   -0.1127 C.3       1 <0>        -0.0786
     13 C10        -3.8783   -6.4291   -1.5652 C.3       1 <0>        -0.1067
     14 C11        -3.8894   -7.9373   -1.8221 C.3       1 <0>        -0.1094
     15 C12        -5.2931   -8.4884   -1.5640 C.3       1 <0>        -0.1233
     16 C13        -5.6891   -8.2156   -0.1116 C.3       1 <0>        -0.1162
     17 C14        -5.6780   -6.7073    0.1454 C.3       1 <0>        -0.1172
     18 N1         -1.9962   -4.6965    1.0606 N.am      1 <0>        -0.7132
     19 C15        -1.4271   -5.9049    0.8810 C.2       1 <0>         0.5087
     20 O1         -1.6090   -6.5133   -0.1523 O.2       1 <0>        -0.4971
     21 C16        -0.5648   -6.5001    1.9641 C.3       1 <0>         0.1284
     22 H4         -1.1540   -6.6191    2.8734 H         1 <0>         0.1299
     23 C17         0.6191   -5.5715    2.2414 C.3       1 <0>        -0.0700
     24 C18         1.4130   -6.1039    3.4065 C.2       1 <0>         0.0354
     25 C19         1.1522   -5.8824    4.7090 C.2       1 <0>         0.0551
     26 N2          2.1123   -6.5465    5.4237 N.pl3     1 <0>        -0.5006
     27 H5          2.1926   -6.5771    6.3898 H         1 <0>         0.4669
     28 C20         2.9270   -7.1511    4.5324 C.cat     1 <0>         0.3132
     29 N3          2.4997   -6.8861    3.3281 N.pl3     1 <0>        -0.4732
     30 N4         -0.0682   -7.8080    1.5294 N.am      1 <0>        -0.7134
     31 C21         0.2785   -8.7352    2.4441 C.2       1 <0>         0.5926
     32 O2          0.1790   -8.4860    3.6306 O.2       1 <0>        -0.5245
     33 C22         0.7769  -10.0479    2.0078 C.2       1 <0>        -0.0055
     34 C23         1.1510  -11.0619    2.8312 C.2       1 <0>        -0.0760
     35 C24         1.5656  -12.1426    2.0176 C.ar      1 <0>        -0.1751
     36 C25         2.0472  -13.4302    2.2900 C.ar      1 <0>        -0.0120
     37 C26         2.3620  -14.2417    1.2312 C.ar      1 <0>        -0.1973
     38 C27         2.1980  -13.7737   -0.0641 C.ar      1 <0>         0.1714
     39 N5          1.7448  -12.5622   -0.3069 N.ar      1 <0>        -0.5016
     40 H6          0.7339   -9.9114   -0.0874 H         1 <0>         0.4225
     41 C28         1.4233  -11.7311    0.6765 C.ar      1 <0>         0.3082
     42 N6          0.9340  -10.4495    0.6945 N.pl3     1 <0>        -0.5655
     43 O3         -3.3642   -2.2297    1.4201 O.3       1 <0>        -0.5419
     44 O4         -2.1245   -0.0603   -1.1448 O.3       1 <0>        -0.5542
     45 H7          1.0039    1.9031    0.0027 H         1 <0>         0.0545
     46 H8         -0.5459    1.8868   -0.8726 H         1 <0>         0.0638
     47 H9         -0.5289    1.8773    0.9072 H         1 <0>         0.0560
     48 H10         0.5123   -0.3556   -0.8948 H         1 <0>         0.0702
     49 H11         0.2319   -0.1594    2.1383 H         1 <0>         0.0583
     50 H12         0.7568   -1.6008    1.2356 H         1 <0>         0.0508
     51 H13         1.7647   -0.1336    1.2338 H         1 <0>         0.0580
     52 H14        -0.9823   -2.4159   -0.9330 H         1 <0>         0.0774
     53 H15        -0.8102   -2.4233    0.8386 H         1 <0>         0.0750
     54 H16        -4.6303   -4.4482    1.1509 H         1 <0>         0.0725
     55 H17        -4.9062   -4.1510   -0.5823 H         1 <0>         0.0772
     56 H18        -3.5641   -6.6438    0.5551 H         1 <0>         0.0681
     57 H19        -4.5885   -5.9416   -2.2331 H         1 <0>         0.0508
     58 H20        -2.8783   -6.0365   -1.7491 H         1 <0>         0.0742
     59 H21        -3.6073   -8.1317   -2.8569 H         1 <0>         0.0551
     60 H22        -3.1792   -8.4249   -1.1542 H         1 <0>         0.0574
     61 H23        -6.0033   -8.0009   -2.2319 H         1 <0>         0.0611
     62 H24        -5.3010   -9.5629   -1.7471 H         1 <0>         0.0576
     63 H25        -6.6891   -8.6081    0.0723 H         1 <0>         0.0602
     64 H26        -4.9789   -8.7031    0.5563 H         1 <0>         0.0540
     65 H27        -5.9601   -6.5129    1.1801 H         1 <0>         0.0565
     66 H28        -6.3882   -6.2198   -0.5225 H         1 <0>         0.0621
     67 H29        -1.8508   -4.2099    1.8870 H         1 <0>         0.3949
     68 H30         1.2572   -5.5228    1.3590 H         1 <0>         0.1068
     69 H31         0.2504   -4.5736    2.4787 H         1 <0>         0.1247
     70 H32         0.3415   -5.2936    5.1122 H         1 <0>         0.2231
     71 H33         3.7872   -7.7571    4.7759 H         1 <0>         0.2626
     72 H34         0.0111   -8.0067    0.5833 H         1 <0>         0.4143
     73 H35         1.1351  -11.0458    3.9110 H         1 <0>         0.1594
     74 H36         2.1673  -13.7737    3.3069 H         1 <0>         0.1416
     75 H37         2.7361  -15.2399    1.4046 H         1 <0>         0.1470
     76 H38         2.4486  -14.4188   -0.8933 H         1 <0>         0.1709
     77 H39        -2.8577   -2.5792    2.1660 H         1 <0>         0.3617
     78 H40        -1.7251   -0.3356   -1.9813 H         1 <0>         0.3732
     79 H41         2.9051   -7.2033    2.5060 H         1 <0>         0.4586
@<TRIPOS>BOND
     1    1    2 1
     2    1   45 1
     3    1   46 1
     4    1   47 1
     5    2    3 1
     6    2    4 1
     7    2   48 1
     8    3   49 1
     9    3   50 1
    10    3   51 1
    11    4    5 1
    12    4    6 1
    13    4   44 1
    14    6    7 1
    15    6   52 1
    16    6   53 1
    17    7    8 1
    18    7    9 1
    19    7   43 1
    20    9   10 1
    21    9   11 1
    22    9   18 1
    23   11   12 1
    24   11   54 1
    25   11   55 1
    26   12   17 1
    27   12   13 1
    28   12   56 1
    29   13   14 1
    30   13   57 1
    31   13   58 1
    32   14   15 1
    33   14   59 1
    34   14   60 1
    35   15   16 1
    36   15   61 1
    37   15   62 1
    38   16   17 1
    39   16   63 1
    40   16   64 1
    41   17   65 1
    42   17   66 1
    43   18   19 am
    44   18   67 1
    45   19   20 2
    46   19   21 1
    47   21   22 1
    48   21   23 1
    49   21   30 1
    50   23   24 1
    51   23   68 1
    52   23   69 1
    53   24   29 1
    54   24   25 2
    55   25   26 1
    56   25   70 1
    57   26   27 1
    58   26   28 1
    59   28   29 2
    60   28   71 1
    61   29   79 1
    62   30   31 am
    63   30   72 1
    64   31   32 2
    65   31   33 1
    66   33   42 1
    67   33   34 2
    68   34   35 1
    69   34   73 1
    70   35   36 ar
    71   35   41 ar
    72   36   37 ar
    73   36   74 1
    74   37   38 ar
    75   37   75 1
    76   38   39 ar
    77   38   76 1
    78   39   41 ar
    79   40   42 1
    80   41   42 1
    81   43   77 1
    82   44   78 1
@<TRIPOS>MOLECULE
CHEMBL299951__2
   78    81     0     0     0
SMALL
USER_CHARGES

@<TRIPOS>ATOM
      1 C1         -0.0187    1.5258    0.0104 C.3       1 <0>        -0.1559
      2 C2          0.0021   -0.0041    0.0020 C.3       1 <0>        -0.1296
      3 C3         -1.4333   -0.5336    0.0129 C.3       1 <0>        -0.1448
      4 C4          0.7182   -0.4975   -1.2568 C.3       1 <0>         0.1147
      5 H1          0.6556   -1.5845   -1.3079 H         1 <0>         0.1065
      6 C5          2.1873   -0.0730   -1.2073 C.3       1 <0>        -0.1471
      7 C6          2.9316   -0.6714   -2.4026 C.3       1 <0>         0.1001
      8 H2          2.4272   -0.3846   -3.3253 H         1 <0>         0.0631
      9 C7          4.3689   -0.1472   -2.4228 C.3       1 <0>         0.1095
     10 H3          4.8733   -0.4340   -1.5001 H         1 <0>         0.1031
     11 C8          4.3538    1.3780   -2.5429 C.3       1 <0>        -0.1267
     12 C9          5.7838    1.9120   -2.4379 C.3       1 <0>        -0.0846
     13 C10         6.3354    1.6215   -1.0407 C.3       1 <0>        -0.1164
     14 C11         7.7653    2.1555   -0.9357 C.3       1 <0>        -0.1197
     15 C12         7.7649    3.6659   -1.1799 C.3       1 <0>        -0.1207
     16 C13         7.2133    3.9564   -2.5771 C.3       1 <0>        -0.1200
     17 C14         5.7833    3.4224   -2.6821 C.3       1 <0>        -0.1140
     18 N1          5.0816   -0.7201   -3.5674 N.am      1 <0>        -0.7199
     19 C15         5.6621   -1.9319   -3.4619 C.2       1 <0>         0.5056
     20 O1          5.5944   -2.5480   -2.4194 O.2       1 <0>        -0.5105
     21 C16         6.3952   -2.5213   -4.6393 C.3       1 <0>         0.1369
     22 H4          7.2141   -1.8610   -4.9250 H         1 <0>         0.1174
     23 C17         5.4298   -2.6751   -5.8162 C.3       1 <0>        -0.0514
     24 C18         6.1881   -3.1485   -7.0294 C.2       1 <0>        -0.0220
     25 C19         6.4879   -4.4238   -7.3415 C.2       1 <0>        -0.0001
     26 N2          7.1681   -4.4191   -8.4975 N.2       1 <0>        -0.4840
     27 H5          6.6425   -1.3990   -8.0891 H         1 <0>         0.4149
     28 C20         7.3013   -3.1894   -8.9136 C.2       1 <0>         0.1935
     29 N3          6.6994   -2.3655   -8.0289 N.pl3     1 <0>        -0.5602
     30 N4          6.9318   -3.8343   -4.2729 N.am      1 <0>        -0.7133
     31 C21         8.0050   -4.3286   -4.9213 C.2       1 <0>         0.5936
     32 O2          8.5281   -3.6843   -5.8108 O.2       1 <0>        -0.4962
     33 C22         8.5435   -5.6464   -4.5536 C.2       1 <0>         0.0232
     34 C23         9.6191   -6.2461   -5.1279 C.2       1 <0>        -0.0854
     35 C24         9.8041   -7.4949   -4.4891 C.ar      1 <0>        -0.1665
     36 C25        10.7306   -8.5345   -4.6459 C.ar      1 <0>        -0.0137
     37 C26        10.6152   -9.6332   -3.8346 C.ar      1 <0>        -0.2045
     38 C27         9.5985   -9.6865   -2.8927 C.ar      1 <0>         0.1567
     39 N5          8.7344   -8.7034   -2.7551 N.ar      1 <0>        -0.5009
     40 H6          7.2748   -6.2732   -3.0019 H         1 <0>         0.4214
     41 C28         8.7952   -7.6146   -3.5113 C.ar      1 <0>         0.3004
     42 N6          8.0399   -6.4704   -3.5647 N.pl3     1 <0>        -0.5648
     43 O3          2.9457   -2.0959   -2.2904 O.3       1 <0>        -0.5481
     44 O4          0.0970    0.0703   -2.4117 O.3       1 <0>        -0.5580
     45 H7          1.0039    1.9031    0.0027 H         1 <0>         0.0563
     46 H8         -0.5459    1.8868   -0.8726 H         1 <0>         0.0574
     47 H9         -0.5289    1.8773    0.9072 H         1 <0>         0.0602
     48 H10         0.5293   -0.3651    0.8851 H         1 <0>         0.0776
     49 H11        -1.9605   -0.1726   -0.8702 H         1 <0>         0.0607
     50 H12        -1.4185   -1.6235    0.0069 H         1 <0>         0.0545
     51 H13        -1.9435   -0.1821    0.9097 H         1 <0>         0.0534
     52 H14         2.2529    1.0143   -1.2457 H         1 <0>         0.0844
     53 H15         2.6381   -0.4317   -0.2819 H         1 <0>         0.0818
     54 H16         3.9295    1.6625   -3.5058 H         1 <0>         0.0724
     55 H17         3.7486    1.7997   -1.7404 H         1 <0>         0.0859
     56 H18         6.4098    1.4234   -3.1846 H         1 <0>         0.0698
     57 H19         5.7093    2.1101   -0.2941 H         1 <0>         0.0628
     58 H20         6.3357    0.5454   -0.8667 H         1 <0>         0.0622
     59 H21         8.1583    1.9485    0.0597 H         1 <0>         0.0614
     60 H22         8.3913    1.6669   -1.6823 H         1 <0>         0.0591
     61 H23         7.1388    4.1544   -0.4333 H         1 <0>         0.0615
     62 H24         8.7836    4.0463   -1.1051 H         1 <0>         0.0607
     63 H25         7.2129    5.0324   -2.7511 H         1 <0>         0.0619
     64 H26         7.8393    3.4678   -3.3238 H         1 <0>         0.0600
     65 H27         5.3904    3.6294   -3.6775 H         1 <0>         0.0613
     66 H28         5.1573    3.9110   -1.9355 H         1 <0>         0.0630
     67 H29         5.1357   -0.2274   -4.4012 H         1 <0>         0.4020
     68 H30         4.6599   -3.4036   -5.5618 H         1 <0>         0.0972
     69 H31         4.9633   -1.7138   -6.0316 H         1 <0>         0.0851
     70 H32         6.2264   -5.2972   -6.7626 H         1 <0>         0.1533
     71 H33         7.8062   -2.8819   -9.8174 H         1 <0>         0.2040
     72 H34         6.5146   -4.3480   -3.5637 H         1 <0>         0.4068
     73 H35        10.2231   -5.8427   -5.9272 H         1 <0>         0.1599
     74 H36        11.5143   -8.4718   -5.3864 H         1 <0>         0.1386
     75 H37        11.3119  -10.4530   -3.9285 H         1 <0>         0.1407
     76 H38         9.5137  -10.5557   -2.2572 H         1 <0>         0.1646
     77 H39         3.4024   -2.5431   -3.0161 H         1 <0>         0.3693
     78 H40         0.1157    1.0369   -2.4332 H         1 <0>         0.3682
@<TRIPOS>BOND
     1    1    2 1
     2    1   45 1
     3    1   46 1
     4    1   47 1
     5    2    3 1
     6    2    4 1
     7    2   48 1
     8    3   49 1
     9    3   50 1
    10    3   51 1
    11    4    5 1
    12    4    6 1
    13    4   44 1
    14    6    7 1
    15    6   52 1
    16    6   53 1
    17    7    8 1
    18    7    9 1
    19    7   43 1
    20    9   10 1
    21    9   11 1
    22    9   18 1
    23   11   12 1
    24   11   54 1
    25   11   55 1
    26   12   17 1
    27   12   13 1
    28   12   56 1
    29   13   14 1
    30   13   57 1
    31   13   58 1
    32   14   15 1
    33   14   59 1
    34   14   60 1
    35   15   16 1
    36   15   61 1
    37   15   62 1
    38   16   17 1
    39   16   63 1
    40   16   64 1
    41   17   65 1
    42   17   66 1
    43   18   19 am
    44   18   67 1
    45   19   20 2
    46   19   21 1
    47   21   22 1
    48   21   23 1
    49   21   30 1
    50   23   68 1
    51   23   69 1
    52   23   24 1
    53   24   25 2
    54   24   29 1
    55   25   26 1
    56   25   70 1
    57   26   28 2
    58   27   29 1
    59   28   71 1
    60   28   29 1
    61   30   31 am
    62   30   72 1
    63   31   32 2
    64   31   33 1
    65   33   42 1
    66   33   34 2
    67   34   35 1
    68   34   73 1
    69   35   36 ar
    70   35   41 ar
    71   36   37 ar
    72   36   74 1
    73   37   38 ar
    74   37   75 1
    75   38   39 ar
    76   38   76 1
    77   39   41 ar
    78   40   42 1
    79   41   42 1
    80   43   77 1
    81   44   78 1
@<TRIPOS>MOLECULE
CHEMBL302095
   66    68     0     0     0
SMALL
USER_CHARGES

@<TRIPOS>ATOM
      1 C1         -0.5058    1.5129    0.3973 C.3       1 <0>         0.0852
      2 N1         -0.4008    0.0583    0.2580 N.am      1 <0>        -0.7373
      3 C2          0.1982   -0.4733   -0.8260 C.2       1 <0>         0.5150
      4 O1          0.5689    0.2471   -1.7284 O.2       1 <0>        -0.5279
      5 C3          0.4073   -1.9630   -0.9167 C.3       1 <0>        -0.0988
      6 H1         -0.5597   -2.4659   -0.9220 H         1 <0>         0.1082
      7 C4          1.1618   -2.2945   -2.2057 C.3       1 <0>        -0.1480
      8 C5          1.1660   -3.8096   -2.4189 C.3       1 <0>         0.0968
      9 H2          0.1444   -4.1864   -2.3687 H         1 <0>         0.1214
     10 C6          1.7609   -4.1298   -3.7917 C.3       1 <0>         0.1134
     11 H3          1.1601   -3.6554   -4.5676 H         1 <0>         0.1084
     12 C7          1.7651   -5.6449   -4.0048 C.3       1 <0>        -0.1215
     13 C8          2.2431   -5.9589   -5.4239 C.3       1 <0>        -0.0845
     14 C9          1.2341   -5.4107   -6.4350 C.3       1 <0>        -0.1063
     15 C10         1.7121   -5.7248   -7.8541 C.3       1 <0>        -0.1127
     16 C11         1.8355   -7.2399   -8.0270 C.3       1 <0>        -0.1203
     17 C12         2.8446   -7.7881   -7.0160 C.3       1 <0>        -0.1176
     18 C13         2.3666   -7.4741   -5.5969 C.3       1 <0>        -0.1141
     19 N2          3.1339   -3.6234   -3.8591 N.am      1 <0>        -0.7228
     20 C14         3.6838   -3.3239   -5.0526 C.2       1 <0>         0.5845
     21 O2          3.0401   -3.4742   -6.0738 O.2       1 <0>        -0.4939
     22 C15         5.0621   -2.8155   -5.1203 C.2       1 <0>         0.0152
     23 C16         5.7208   -2.4747   -6.2587 C.2       1 <0>        -0.0941
     24 C17         7.0159   -2.0350   -5.8923 C.ar      1 <0>        -0.1090
     25 C18         8.1165   -1.5695   -6.6237 C.ar      1 <0>        -0.0476
     26 C19         9.2615   -1.2102   -5.9726 C.ar      1 <0>        -0.0603
     27 C20         9.3465   -1.3018   -4.5878 C.ar      1 <0>        -0.0770
     28 C21         8.2784   -1.7567   -3.8480 C.ar      1 <0>        -0.1183
     29 C22         7.1000   -2.1285   -4.4895 C.ar      1 <0>         0.1172
     30 N3          5.8913   -2.6028   -4.0361 N.pl3     1 <0>        -0.5779
     31 H4          5.6601   -2.7640   -3.1080 H         1 <0>         0.4127
     32 Cl1        10.6237   -0.6344   -6.8818 Cl        1 <0>        -0.0683
     33 O3          1.9536   -4.4316   -1.4016 O.3       1 <0>        -0.5471
     34 C23         1.2224   -2.4378    0.2879 C.3       1 <0>        -0.0999
     35 C24         2.4850   -1.6218    0.3932 C.2       1 <0>        -0.0673
     36 C25         2.5228   -0.5702    1.1761 C.2       1 <0>        -0.1649
     37 Cl2         3.8894   -2.0738   -0.5217 Cl        1 <0>        -0.0999
     38 H5          0.4927    1.9500    0.4073 H         1 <0>         0.0597
     39 H6         -1.0715    1.9184   -0.4415 H         1 <0>         0.0609
     40 H7         -1.0167    1.7527    1.3299 H         1 <0>         0.0763
     41 H8         -0.7624   -0.5221    0.9459 H         1 <0>         0.4009
     42 H9          0.6700   -1.8103   -3.0494 H         1 <0>         0.0900
     43 H10         2.1881   -1.9356   -2.1286 H         1 <0>         0.0837
     44 H11         2.4363   -6.1114   -3.2838 H         1 <0>         0.0700
     45 H12         0.7563   -6.0340   -3.8668 H         1 <0>         0.0752
     46 H13         3.2145   -5.4938   -5.5914 H         1 <0>         0.0749
     47 H14         0.2626   -5.8759   -6.2675 H         1 <0>         0.0475
     48 H15         1.1461   -4.3313   -6.3117 H         1 <0>         0.0774
     49 H16         0.9932   -5.3342   -8.5744 H         1 <0>         0.0544
     50 H17         2.6835   -5.2596   -8.0215 H         1 <0>         0.0649
     51 H18         0.8641   -7.7051   -7.8596 H         1 <0>         0.0574
     52 H19         2.1761   -7.4637   -9.0380 H         1 <0>         0.0566
     53 H20         2.9325   -8.8676   -7.1392 H         1 <0>         0.0571
     54 H21         3.8160   -7.3229   -7.1834 H         1 <0>         0.0585
     55 H22         3.0854   -7.8646   -4.8766 H         1 <0>         0.0550
     56 H23         1.3951   -7.9393   -5.4294 H         1 <0>         0.0589
     57 H24         3.6472   -3.5035   -3.0448 H         1 <0>         0.3853
     58 H25         5.3274   -2.5298   -7.2629 H         1 <0>         0.1613
     59 H26         8.0595   -1.4955   -7.6997 H         1 <0>         0.1386
     60 H27        10.2594   -1.0137   -4.0878 H         1 <0>         0.1401
     61 H28         8.3543   -1.8249   -2.7729 H         1 <0>         0.1326
     62 H29         2.8633   -4.1070   -1.3550 H         1 <0>         0.3653
     63 H30         0.6333   -2.3145    1.1967 H         1 <0>         0.0887
     64 H31         1.4791   -3.4896    0.1611 H         1 <0>         0.1295
     65 H32         1.6491   -0.2890    1.7452 H         1 <0>         0.1257
     66 H33         3.4277    0.0146    1.2515 H         1 <0>         0.1132
@<TRIPOS>BOND
     1    1    2 1
     2    1   38 1
     3    1   39 1
     4    1   40 1
     5    2    3 am
     6    2   41 1
     7    3    4 2
     8    3    5 1
     9    5    6 1
    10    5    7 1
    11    5   34 1
    12    7    8 1
    13    7   42 1
    14    7   43 1
    15    8    9 1
    16    8   10 1
    17    8   33 1
    18   10   11 1
    19   10   12 1
    20   10   19 1
    21   12   13 1
    22   12   44 1
    23   12   45 1
    24   13   18 1
    25   13   14 1
    26   13   46 1
    27   14   15 1
    28   14   47 1
    29   14   48 1
    30   15   16 1
    31   15   49 1
    32   15   50 1
    33   16   17 1
    34   16   51 1
    35   16   52 1
    36   17   18 1
    37   17   53 1
    38   17   54 1
    39   18   55 1
    40   18   56 1
    41   19   20 am
    42   19   57 1
    43   20   21 2
    44   20   22 1
    45   22   30 1
    46   22   23 2
    47   23   24 1
    48   23   58 1
    49   24   29 ar
    50   24   25 ar
    51   25   26 ar
    52   25   59 1
    53   26   27 ar
    54   26   32 1
    55   27   28 ar
    56   27   60 1
    57   28   29 ar
    58   28   61 1
    59   29   30 1
    60   30   31 1
    61   33   62 1
    62   34   35 1
    63   34   63 1
    64   34   64 1
    65   35   36 2
    66   35   37 1
    67   36   65 1
    68   36   66 1
@<TRIPOS>MOLECULE
CHEMBL536521
   95    96     0     0     0
SMALL
USER_CHARGES

@<TRIPOS>ATOM
      1 C1          0.1112   -0.4496    2.0680 C.3       1 <0>        -0.1517
      2 C2         -0.2865   -0.3742    0.5925 C.3       1 <0>        -0.1078
      3 H1         -0.1671    0.6488    0.2358 H         1 <0>         0.1119
      4 C3         -1.7471   -0.8018    0.4356 C.3       1 <0>        -0.1512
      5 C4         -2.1961   -0.5633   -1.0075 C.3       1 <0>         0.0840
      6 H2         -1.5079   -1.0628   -1.6894 H         1 <0>         0.1596
      7 C5         -3.6055   -1.1259   -1.2027 C.3       1 <0>        -0.0090
      8 H3         -3.6014   -2.1960   -0.9956 H         1 <0>         0.1561
      9 C6         -4.0545   -0.8874   -2.6458 C.3       1 <0>        -0.1420
     10 C7         -5.4183   -1.5434   -2.8706 C.3       1 <0>        -0.0876
     11 H4         -6.1208   -1.1888   -2.1163 H         1 <0>         0.0655
     12 C8         -5.2774   -3.0630   -2.7621 C.3       1 <0>        -0.0815
     13 C9         -6.6405   -3.7008   -2.8419 C.ar      1 <0>        -0.0881
     14 C10        -7.4224   -3.8015   -1.7062 C.ar      1 <0>        -0.1204
     15 C11        -8.6735   -4.3857   -1.7742 C.ar      1 <0>        -0.1701
     16 C12        -9.1464   -4.8716   -2.9826 C.ar      1 <0>         0.1055
     17 C13        -8.3596   -4.7699   -4.1258 C.ar      1 <0>         0.1125
     18 C14        -7.1085   -4.1788   -4.0516 C.ar      1 <0>        -0.1680
     19 O1         -8.8194   -5.2452   -5.3141 O.3       1 <0>        -0.2978
     20 C15        -7.9575   -5.1067   -6.4454 C.3       1 <0>         0.0645
     21 C16        -8.6405   -5.6945   -7.6819 C.3       1 <0>        -0.1220
     22 C17        -7.7177   -5.5462   -8.8933 C.3       1 <0>         0.0664
     23 O2         -8.3557   -6.0951  -10.0481 O.3       1 <0>        -0.3884
     24 C18        -7.5740   -6.0069  -11.2411 C.3       1 <0>         0.0308
     25 O3        -10.3767   -5.4470   -3.0511 O.3       1 <0>        -0.3029
     26 C19       -11.1284   -5.5176   -1.8378 C.3       1 <0>         0.0251
     27 C20        -5.9370   -1.1774   -4.2627 C.3       1 <0>        -0.0918
     28 C21        -6.1628    0.3338   -4.3417 C.3       1 <0>        -0.1551
     29 C22        -4.9091   -1.5952   -5.3161 C.3       1 <0>        -0.1588
     30 N1         -4.5330   -0.4528   -0.2837 N.4       1 <0>        -0.6417
     31 O4         -2.2014    0.8396   -1.2790 O.3       1 <0>        -0.5349
     32 C23         0.5953   -1.2932   -0.2130 C.2       1 <0>         0.5185
     33 O5          0.1038   -2.2008   -0.8500 O.2       1 <0>        -0.5476
     34 N2          1.9300   -1.1066   -0.2257 N.am      1 <0>        -0.7219
     35 C24         2.7872   -2.0000   -1.0088 C.3       1 <0>         0.1173
     36 C25         4.2478   -1.5724   -0.8518 C.3       1 <0>        -0.1188
     37 C26         5.1430   -2.5054   -1.6697 C.3       1 <0>        -0.1368
     38 C27         6.5817   -2.0843   -1.5151 C.2       1 <0>         0.5169
     39 O6          6.8633   -1.1317   -0.8193 O.2       1 <0>        -0.5365
     40 N3          7.5555   -2.7663   -2.1501 N.am      1 <0>        -0.6176
     41 C28         7.2377   -3.9215   -3.0044 C.3       1 <0>         0.0698
     42 C29         7.9323   -3.7279   -4.3572 C.3       1 <0>         0.0453
     43 O7          9.3200   -3.4615   -4.1400 O.3       1 <0>        -0.3759
     44 C30         9.5780   -2.2590   -3.4111 C.3       1 <0>         0.0470
     45 C31         8.9672   -2.3739   -2.0143 C.3       1 <0>         0.0746
     46 H5          1.1735   -0.2275    2.1697 H         1 <0>         0.0698
     47 H6         -0.4681    0.2768    2.6380 H         1 <0>         0.0720
     48 H7         -0.0884   -1.4518    2.4474 H         1 <0>         0.0658
     49 H8         -1.8436   -1.8606    0.6758 H         1 <0>         0.1002
     50 H9         -2.3714   -0.2175    1.1116 H         1 <0>         0.0717
     51 H10        -4.1319    0.1842   -2.8298 H         1 <0>         0.1020
     52 H11        -3.3252   -1.3217   -3.3297 H         1 <0>         0.1196
     53 H12        -4.6563   -3.4296   -3.5793 H         1 <0>         0.0875
     54 H13        -4.8123   -3.3177   -1.8098 H         1 <0>         0.0701
     55 H14        -7.0549   -3.4232   -0.7637 H         1 <0>         0.1173
     56 H15        -9.2820   -4.4638   -0.8854 H         1 <0>         0.1368
     57 H16        -6.4973   -4.0952   -4.9382 H         1 <0>         0.1353
     58 H17        -7.7465   -4.0508   -6.6143 H         1 <0>         0.0635
     59 H18        -7.0244   -5.6383   -6.2586 H         1 <0>         0.0644
     60 H19        -8.8515   -6.7504   -7.5130 H         1 <0>         0.0861
     61 H20        -9.5736   -5.1629   -7.8688 H         1 <0>         0.0855
     62 H21        -7.5067   -4.4902   -9.0622 H         1 <0>         0.0514
     63 H22        -6.7846   -6.0778   -8.7064 H         1 <0>         0.0520
     64 H23        -8.1277   -6.4448  -12.0716 H         1 <0>         0.0911
     65 H24        -7.3600   -4.9605  -11.4587 H         1 <0>         0.0431
     66 H25        -6.6379   -6.5480  -11.1030 H         1 <0>         0.0435
     67 H26       -12.0875   -5.9977   -2.0320 H         1 <0>         0.1056
     68 H27       -10.5742   -6.0981   -1.1003 H         1 <0>         0.0565
     69 H28       -11.2969   -4.5107   -1.4557 H         1 <0>         0.0555
     70 H29        -6.8780   -1.6955   -4.4476 H         1 <0>         0.0847
     71 H30        -5.2056    0.8489   -4.2619 H         1 <0>         0.0575
     72 H31        -6.6306    0.5819   -5.2945 H         1 <0>         0.0634
     73 H32        -6.8133    0.6472   -3.5252 H         1 <0>         0.0526
     74 H33        -4.8068   -2.6804   -5.3135 H         1 <0>         0.0588
     75 H34        -5.2417   -1.2640   -6.2998 H         1 <0>         0.0620
     76 H35        -3.9464   -1.1390   -5.0854 H         1 <0>         0.0597
     77 H36        -4.5994    0.5239   -0.5284 H         1 <0>         0.4299
     78 H37        -5.4446   -0.8797   -0.3535 H         1 <0>         0.4379
     79 H38        -2.7933    1.3485   -0.7082 H         1 <0>         0.3646
     80 H39         2.3230   -0.3807    0.2837 H         1 <0>         0.4055
     81 H40         2.6677   -3.0230   -0.6521 H         1 <0>         0.0726
     82 H41         2.5038   -1.9463   -2.0599 H         1 <0>         0.0719
     83 H42         4.3672   -0.5494   -1.2085 H         1 <0>         0.0798
     84 H43         4.5312   -1.6261    0.1993 H         1 <0>         0.0803
     85 H44         5.0236   -3.5285   -1.3130 H         1 <0>         0.0995
     86 H45         4.8597   -2.4517   -2.7208 H         1 <0>         0.0983
     87 H46         7.5985   -4.8362   -2.5341 H         1 <0>         0.0831
     88 H47         6.1595   -3.9841   -3.1510 H         1 <0>         0.0958
     89 H48         7.8246   -4.6332   -4.9546 H         1 <0>         0.1103
     90 H49         7.4782   -2.8878   -4.8827 H         1 <0>         0.0570
     91 H50        10.6542   -2.1075   -3.3279 H         1 <0>         0.1113
     92 H51         9.1299   -1.4136   -3.9332 H         1 <0>         0.0567
     93 H52         9.0337   -1.4122   -1.5056 H         1 <0>         0.1035
     94 H53         9.5051   -3.1301   -1.4426 H         1 <0>         0.0791
     95 H54        -4.1922   -0.5402    0.6619 H         1 <0>         0.4327
@<TRIPOS>BOND
     1    1    2 1
     2    1   46 1
     3    1   47 1
     4    1   48 1
     5    2    3 1
     6    2    4 1
     7    2   32 1
     8    4    5 1
     9    4   49 1
    10    4   50 1
    11    5    6 1
    12    5    7 1
    13    5   31 1
    14    7    8 1
    15    7    9 1
    16    7   30 1
    17    9   10 1
    18    9   51 1
    19    9   52 1
    20   10   11 1
    21   10   12 1
    22   10   27 1
    23   12   13 1
    24   12   53 1
    25   12   54 1
    26   13   18 ar
    27   13   14 ar
    28   14   15 ar
    29   14   55 1
    30   15   16 ar
    31   15   56 1
    32   16   17 ar
    33   16   25 1
    34   17   18 ar
    35   17   19 1
    36   18   57 1
    37   19   20 1
    38   20   21 1
    39   20   58 1
    40   20   59 1
    41   21   22 1
    42   21   60 1
    43   21   61 1
    44   22   23 1
    45   22   62 1
    46   22   63 1
    47   23   24 1
    48   24   64 1
    49   24   65 1
    50   24   66 1
    51   25   26 1
    52   26   67 1
    53   26   68 1
    54   26   69 1
    55   27   28 1
    56   27   29 1
    57   27   70 1
    58   28   71 1
    59   28   72 1
    60   28   73 1
    61   29   74 1
    62   29   75 1
    63   29   76 1
    64   30   77 1
    65   30   78 1
    66   30   95 1
    67   31   79 1
    68   32   33 2
    69   32   34 am
    70   34   35 1
    71   34   80 1
    72   35   36 1
    73   35   81 1
    74   35   82 1
    75   36   37 1
    76   36   83 1
    77   36   84 1
    78   37   38 1
    79   37   85 1
    80   37   86 1
    81   38   39 2
    82   38   40 am
    83   40   45 1
    84   40   41 1
    85   41   42 1
    86   41   87 1
    87   41   88 1
    88   42   43 1
    89   42   89 1
    90   42   90 1
    91   43   44 1
    92   44   45 1
    93   44   91 1
    94   44   92 1
    95   45   93 1
    96   45   94 1
@<TRIPOS>MOLECULE
CHEMBL144073
   92    93     0     0     0
SMALL
USER_CHARGES

@<TRIPOS>ATOM
      1 C1          7.3239    0.6275   -1.4390 C.3       1 <0>        -0.1525
      2 C2          7.1172   -0.8701   -1.6745 C.3       1 <0>        -0.1224
      3 C3          5.7131   -1.1094   -2.2332 C.3       1 <0>        -0.1316
      4 C4          5.5064   -2.6070   -2.4686 C.3       1 <0>         0.1170
      5 N1          4.1620   -2.8362   -3.0036 N.am      1 <0>        -0.7337
      6 C5          3.7550   -4.0888   -3.2895 C.2       1 <0>         0.5184
      7 O1          4.5017   -5.0263   -3.1039 O.2       1 <0>        -0.5347
      8 C6          2.3720   -4.3246   -3.8398 C.3       1 <0>        -0.1075
      9 H1          2.2602   -3.7897   -4.7830 H         1 <0>         0.1042
     10 C7          1.3316   -3.8173   -2.8393 C.3       1 <0>        -0.1458
     11 C8          2.1652   -5.8222   -4.0753 C.3       1 <0>        -0.1353
     12 C9          3.0937   -6.2953   -5.1956 C.3       1 <0>         0.0975
     13 H2          4.1215   -6.0239   -4.9546 H         1 <0>         0.1241
     14 C10         2.9876   -7.8149   -5.3383 C.3       1 <0>         0.1151
     15 H3          3.2784   -8.2891   -4.4009 H         1 <0>         0.1003
     16 C11         3.9161   -8.2880   -6.4586 C.3       1 <0>        -0.1157
     17 C12         3.9047   -9.8167   -6.5190 C.3       1 <0>        -0.0865
     18 C13         4.5045  -10.3825   -5.2302 C.3       1 <0>        -0.1048
     19 C14         4.4931  -11.9113   -5.2906 C.3       1 <0>        -0.1149
     20 C15         5.3221  -12.3806   -6.4879 C.3       1 <0>        -0.1175
     21 C16         4.7223  -11.8148   -7.7767 C.3       1 <0>        -0.1172
     22 C17         4.7336  -10.2860   -7.7163 C.3       1 <0>        -0.1116
     23 N2          1.6062   -8.1797   -5.6622 N.am      1 <0>        -0.7315
     24 C18         1.1429   -9.4068   -5.3522 C.2       1 <0>         0.5039
     25 O2          1.8696  -10.2090   -4.8052 O.2       1 <0>        -0.4971
     26 C19        -0.2781   -9.7820   -5.6854 C.3       1 <0>         0.1535
     27 H4         -0.9589   -9.0528   -5.2462 H         1 <0>         0.0837
     28 C20        -0.4586   -9.7979   -7.2046 C.3       1 <0>        -0.1234
     29 C21        -1.9287  -10.0560   -7.5409 C.3       1 <0>        -0.1256
     30 C22        -2.1091  -10.0719   -9.0602 C.3       1 <0>        -0.1477
     31 O3         -0.5644  -11.0790   -5.1582 O.3       1 <0>        -0.7349
     32 P1         -1.7303  -11.3500   -4.0814 P.3       1 <0>         2.2640
     33 O4         -3.0717  -10.8135   -4.6288 O.2       1 <0>        -1.0833
     34 C23        -1.8714  -13.1418   -3.7768 C.3       1 <0>        -0.7276
     35 C24        -3.0592  -13.4096   -2.8503 C.3       1 <0>        -0.0843
     36 C25        -3.1777  -14.9134   -2.5946 C.3       1 <0>        -0.0810
     37 C26        -4.3477  -15.1771   -1.6820 C.ar      1 <0>        -0.0716
     38 C27        -4.1667  -15.1873   -0.3116 C.ar      1 <0>        -0.1183
     39 C28        -5.2399  -15.4292    0.5255 C.ar      1 <0>        -0.1189
     40 C29        -6.4941  -15.6605   -0.0079 C.ar      1 <0>        -0.1322
     41 C30        -6.6752  -15.6495   -1.3783 C.ar      1 <0>        -0.1192
     42 C31        -5.6028  -15.4033   -2.2152 C.ar      1 <0>        -0.1182
     43 O5         -1.3880  -10.6282   -2.7590 O.3       1 <0>        -1.0874
     44 O6          2.7125   -5.6736   -6.4245 O.3       1 <0>        -0.5579
     45 H5          7.2121    1.1624   -2.3821 H         1 <0>         0.0541
     46 H6          6.5828    0.9889   -0.7262 H         1 <0>         0.0542
     47 H7          8.3242    0.7980   -1.0410 H         1 <0>         0.0552
     48 H8          7.8584   -1.2315   -2.3873 H         1 <0>         0.0650
     49 H9          7.2290   -1.4050   -0.7314 H         1 <0>         0.0652
     50 H10         4.9719   -0.7480   -1.5204 H         1 <0>         0.0686
     51 H11         5.6013   -0.5745   -3.1763 H         1 <0>         0.0685
     52 H12         6.2476   -2.9685   -3.1815 H         1 <0>         0.0663
     53 H13         5.6182   -3.1419   -1.5255 H         1 <0>         0.0665
     54 H14         3.5647   -2.0864   -3.1521 H         1 <0>         0.3994
     55 H15         1.4703   -4.3223   -1.8834 H         1 <0>         0.0622
     56 H16         1.4522   -2.7425   -2.7032 H         1 <0>         0.0570
     57 H17         0.3311   -4.0255   -3.2184 H         1 <0>         0.0726
     58 H18         2.3925   -6.3687   -3.1600 H         1 <0>         0.0858
     59 H19         1.1293   -6.0056   -4.3602 H         1 <0>         0.0791
     60 H20         3.5717   -7.8842   -7.4107 H         1 <0>         0.0665
     61 H21         4.9300   -7.9397   -6.2616 H         1 <0>         0.0645
     62 H22         2.8787  -10.1684   -6.6273 H         1 <0>         0.0825
     63 H23         5.5305  -10.0308   -5.1220 H         1 <0>         0.0418
     64 H24         3.9139  -10.0482   -4.3773 H         1 <0>         0.0818
     65 H25         4.9204  -12.3144   -4.3724 H         1 <0>         0.0511
     66 H26         3.4671  -12.2630   -5.3988 H         1 <0>         0.0689
     67 H27         6.3481  -12.0289   -6.3797 H         1 <0>         0.0540
     68 H28         5.3139  -13.4697   -6.5309 H         1 <0>         0.0526
     69 H29         5.3128  -12.1491   -8.6296 H         1 <0>         0.0526
     70 H30         3.6962  -12.1665   -7.8849 H         1 <0>         0.0602
     71 H31         4.3063   -9.8829   -8.6345 H         1 <0>         0.0538
     72 H32         5.7597   -9.9343   -7.6081 H         1 <0>         0.0542
     73 H33         1.0250   -7.5381   -6.0998 H         1 <0>         0.3903
     74 H34        -0.1552   -8.8354   -7.6166 H         1 <0>         0.0705
     75 H35         0.1568  -10.5877   -7.6354 H         1 <0>         0.0716
     76 H36        -2.2320  -11.0185   -7.1289 H         1 <0>         0.0753
     77 H37        -2.5441   -9.2662   -7.1102 H         1 <0>         0.0735
     78 H38        -1.8058   -9.1094   -9.4722 H         1 <0>         0.0483
     79 H39        -1.4938  -10.8617   -9.4909 H         1 <0>         0.0473
     80 H40        -3.1565  -10.2558   -9.2997 H         1 <0>         0.0526
     81 H41        -2.0248  -13.6603   -4.7232 H         1 <0>         0.0677
     82 H42        -0.9563  -13.5039   -3.3082 H         1 <0>         0.0708
     83 H43        -2.9059  -12.8911   -1.9038 H         1 <0>         0.0697
     84 H44        -3.9744  -13.0475   -3.3189 H         1 <0>         0.0732
     85 H45        -3.3310  -15.4319   -3.5410 H         1 <0>         0.0647
     86 H46        -2.2626  -15.2755   -2.1260 H         1 <0>         0.0650
     87 H47        -3.1869  -15.0066    0.1051 H         1 <0>         0.1210
     88 H48        -5.0984  -15.4378    1.5961 H         1 <0>         0.1197
     89 H49        -7.3324  -15.8502    0.6461 H         1 <0>         0.1180
     90 H50        -7.6549  -15.8305   -1.7949 H         1 <0>         0.1195
     91 H51        -5.7450  -15.3910   -3.2857 H         1 <0>         0.1207
     92 H52         1.8074   -5.8717   -6.7013 H         1 <0>         0.3668
@<TRIPOS>BOND
     1    1    2 1
     2    1   45 1
     3    1   46 1
     4    1   47 1
     5    2    3 1
     6    2   48 1
     7    2   49 1
     8    3    4 1
     9    3   50 1
    10    3   51 1
    11    4    5 1
    12    4   52 1
    13    4   53 1
    14    5    6 am
    15    5   54 1
    16    6    7 2
    17    6    8 1
    18    8    9 1
    19    8   10 1
    20    8   11 1
    21   10   55 1
    22   10   56 1
    23   10   57 1
    24   11   12 1
    25   11   58 1
    26   11   59 1
    27   12   13 1
    28   12   14 1
    29   12   44 1
    30   14   15 1
    31   14   16 1
    32   14   23 1
    33   16   17 1
    34   16   60 1
    35   16   61 1
    36   17   22 1
    37   17   18 1
    38   17   62 1
    39   18   19 1
    40   18   63 1
    41   18   64 1
    42   19   20 1
    43   19   65 1
    44   19   66 1
    45   20   21 1
    46   20   67 1
    47   20   68 1
    48   21   22 1
    49   21   69 1
    50   21   70 1
    51   22   71 1
    52   22   72 1
    53   23   24 am
    54   23   73 1
    55   24   25 2
    56   24   26 1
    57   26   27 1
    58   26   28 1
    59   26   31 1
    60   28   29 1
    61   28   74 1
    62   28   75 1
    63   29   30 1
    64   29   76 1
    65   29   77 1
    66   30   78 1
    67   30   79 1
    68   30   80 1
    69   31   32 1
    70   32   33 2
    71   32   34 1
    72   32   43 1
    73   34   35 1
    74   34   81 1
    75   34   82 1
    76   35   36 1
    77   35   83 1
    78   35   84 1
    79   36   37 1
    80   36   85 1
    81   36   86 1
    82   37   42 ar
    83   37   38 ar
    84   38   39 ar
    85   38   87 1
    86   39   40 ar
    87   39   88 1
    88   40   41 ar
    89   40   89 1
    90   41   42 ar
    91   41   90 1
    92   42   91 1
    93   44   92 1
@<TRIPOS>MOLECULE
CHEMBL144073__1
   92    93     0     0     0
SMALL
USER_CHARGES

@<TRIPOS>ATOM
      1 C1          7.3239    0.6275   -1.4390 C.3       1 <0>        -0.1525
      2 C2          7.1172   -0.8701   -1.6745 C.3       1 <0>        -0.1224
      3 C3          5.7131   -1.1094   -2.2332 C.3       1 <0>        -0.1316
      4 C4          5.5064   -2.6070   -2.4686 C.3       1 <0>         0.1170
      5 N1          4.1620   -2.8362   -3.0036 N.am      1 <0>        -0.7337
      6 C5          3.7550   -4.0888   -3.2895 C.2       1 <0>         0.5184
      7 O1          4.5017   -5.0263   -3.1039 O.2       1 <0>        -0.5347
      8 C6          2.3720   -4.3246   -3.8398 C.3       1 <0>        -0.1075
      9 H1          2.2602   -3.7897   -4.7830 H         1 <0>         0.1042
     10 C7          1.3316   -3.8173   -2.8393 C.3       1 <0>        -0.1458
     11 C8          2.1652   -5.8222   -4.0753 C.3       1 <0>        -0.1353
     12 C9          3.0937   -6.2953   -5.1956 C.3       1 <0>         0.0975
     13 H2          4.1215   -6.0239   -4.9546 H         1 <0>         0.1241
     14 C10         2.9876   -7.8149   -5.3383 C.3       1 <0>         0.1151
     15 H3          3.2784   -8.2891   -4.4009 H         1 <0>         0.1003
     16 C11         3.9161   -8.2880   -6.4586 C.3       1 <0>        -0.1157
     17 C12         3.9047   -9.8167   -6.5190 C.3       1 <0>        -0.0865
     18 C13         4.5045  -10.3825   -5.2302 C.3       1 <0>        -0.1048
     19 C14         4.4931  -11.9113   -5.2906 C.3       1 <0>        -0.1149
     20 C15         5.3221  -12.3806   -6.4879 C.3       1 <0>        -0.1175
     21 C16         4.7223  -11.8148   -7.7767 C.3       1 <0>        -0.1172
     22 C17         4.7336  -10.2860   -7.7163 C.3       1 <0>        -0.1116
     23 N2          1.6062   -8.1797   -5.6622 N.am      1 <0>        -0.7315
     24 C18         1.1429   -9.4068   -5.3522 C.2       1 <0>         0.5039
     25 O2          1.8696  -10.2090   -4.8052 O.2       1 <0>        -0.4971
     26 C19        -0.2781   -9.7820   -5.6854 C.3       1 <0>         0.1535
     27 H4         -0.9589   -9.0528   -5.2462 H         1 <0>         0.0837
     28 C20        -0.4586   -9.7979   -7.2046 C.3       1 <0>        -0.1234
     29 C21        -1.9287  -10.0560   -7.5409 C.3       1 <0>        -0.1256
     30 C22        -2.1091  -10.0719   -9.0602 C.3       1 <0>        -0.1477
     31 O3         -0.5644  -11.0790   -5.1582 O.3       1 <0>        -0.7349
     32 P1         -1.7303  -11.3500   -4.0814 P.3       1 <0>         2.2640
     33 O4         -3.0717  -10.8135   -4.6288 O.2       1 <0>        -1.0833
     34 C23        -1.8714  -13.1418   -3.7768 C.3       1 <0>        -0.7276
     35 C24        -3.0592  -13.4096   -2.8503 C.3       1 <0>        -0.0843
     36 C25        -3.1777  -14.9134   -2.5946 C.3       1 <0>        -0.0810
     37 C26        -4.3477  -15.1771   -1.6820 C.ar      1 <0>        -0.0716
     38 C27        -4.1667  -15.1873   -0.3116 C.ar      1 <0>        -0.1183
     39 C28        -5.2399  -15.4292    0.5255 C.ar      1 <0>        -0.1189
     40 C29        -6.4941  -15.6605   -0.0079 C.ar      1 <0>        -0.1322
     41 C30        -6.6752  -15.6495   -1.3783 C.ar      1 <0>        -0.1192
     42 C31        -5.6028  -15.4033   -2.2152 C.ar      1 <0>        -0.1182
     43 O5         -1.3880  -10.6282   -2.7590 O.3       1 <0>        -1.0874
     44 O6          2.7125   -5.6736   -6.4245 O.3       1 <0>        -0.5579
     45 H5          7.2121    1.1624   -2.3821 H         1 <0>         0.0541
     46 H6          6.5828    0.9889   -0.7262 H         1 <0>         0.0542
     47 H7          8.3242    0.7980   -1.0410 H         1 <0>         0.0552
     48 H8          7.8584   -1.2315   -2.3873 H         1 <0>         0.0650
     49 H9          7.2290   -1.4050   -0.7314 H         1 <0>         0.0652
     50 H10         4.9719   -0.7480   -1.5204 H         1 <0>         0.0686
     51 H11         5.6013   -0.5745   -3.1763 H         1 <0>         0.0685
     52 H12         6.2476   -2.9685   -3.1815 H         1 <0>         0.0663
     53 H13         5.6182   -3.1419   -1.5255 H         1 <0>         0.0665
     54 H14         3.5647   -2.0864   -3.1521 H         1 <0>         0.3994
     55 H15         1.4703   -4.3223   -1.8834 H         1 <0>         0.0622
     56 H16         1.4522   -2.7425   -2.7032 H         1 <0>         0.0570
     57 H17         0.3311   -4.0255   -3.2184 H         1 <0>         0.0726
     58 H18         2.3925   -6.3687   -3.1600 H         1 <0>         0.0858
     59 H19         1.1293   -6.0056   -4.3602 H         1 <0>         0.0791
     60 H20         3.5717   -7.8842   -7.4107 H         1 <0>         0.0665
     61 H21         4.9300   -7.9397   -6.2616 H         1 <0>         0.0645
     62 H22         2.8787  -10.1684   -6.6273 H         1 <0>         0.0825
     63 H23         5.5305  -10.0308   -5.1220 H         1 <0>         0.0418
     64 H24         3.9139  -10.0482   -4.3773 H         1 <0>         0.0818
     65 H25         4.9204  -12.3144   -4.3724 H         1 <0>         0.0511
     66 H26         3.4671  -12.2630   -5.3988 H         1 <0>         0.0689
     67 H27         6.3481  -12.0289   -6.3797 H         1 <0>         0.0540
     68 H28         5.3139  -13.4697   -6.5309 H         1 <0>         0.0526
     69 H29         5.3128  -12.1491   -8.6296 H         1 <0>         0.0526
     70 H30         3.6962  -12.1665   -7.8849 H         1 <0>         0.0602
     71 H31         4.3063   -9.8829   -8.6345 H         1 <0>         0.0538
     72 H32         5.7597   -9.9343   -7.6081 H         1 <0>         0.0542
     73 H33         1.0250   -7.5381   -6.0998 H         1 <0>         0.3903
     74 H34        -0.1552   -8.8354   -7.6166 H         1 <0>         0.0705
     75 H35         0.1568  -10.5877   -7.6354 H         1 <0>         0.0716
     76 H36        -2.2320  -11.0185   -7.1289 H         1 <0>         0.0753
     77 H37        -2.5441   -9.2662   -7.1102 H         1 <0>         0.0735
     78 H38        -1.8058   -9.1094   -9.4722 H         1 <0>         0.0483
     79 H39        -1.4938  -10.8617   -9.4909 H         1 <0>         0.0473
     80 H40        -3.1565  -10.2558   -9.2997 H         1 <0>         0.0526
     81 H41        -2.0248  -13.6603   -4.7232 H         1 <0>         0.0677
     82 H42        -0.9563  -13.5039   -3.3082 H         1 <0>         0.0708
     83 H43        -2.9059  -12.8911   -1.9038 H         1 <0>         0.0697
     84 H44        -3.9744  -13.0475   -3.3189 H         1 <0>         0.0732
     85 H45        -3.3310  -15.4319   -3.5410 H         1 <0>         0.0647
     86 H46        -2.2626  -15.2755   -2.1260 H         1 <0>         0.0650
     87 H47        -3.1869  -15.0066    0.1051 H         1 <0>         0.1210
     88 H48        -5.0984  -15.4378    1.5961 H         1 <0>         0.1197
     89 H49        -7.3324  -15.8502    0.6461 H         1 <0>         0.1180
     90 H50        -7.6549  -15.8305   -1.7949 H         1 <0>         0.1195
     91 H51        -5.7450  -15.3910   -3.2857 H         1 <0>         0.1207
     92 H52         1.8074   -5.8717   -6.7013 H         1 <0>         0.3668
@<TRIPOS>BOND
     1    1    2 1
     2    1   45 1
     3    1   46 1
     4    1   47 1
     5    2    3 1
     6    2   48 1
     7    2   49 1
     8    3    4 1
     9    3   50 1
    10    3   51 1
    11    4    5 1
    12    4   52 1
    13    4   53 1
    14    5    6 am
    15    5   54 1
    16    6    7 2
    17    6    8 1
    18    8    9 1
    19    8   10 1
    20    8   11 1
    21   10   55 1
    22   10   56 1
    23   10   57 1
    24   11   12 1
    25   11   58 1
    26   11   59 1
    27   12   13 1
    28   12   14 1
    29   12   44 1
    30   14   15 1
    31   14   16 1
    32   14   23 1
    33   16   17 1
    34   16   60 1
    35   16   61 1
    36   17   22 1
    37   17   18 1
    38   17   62 1
    39   18   19 1
    40   18   63 1
    41   18   64 1
    42   19   20 1
    43   19   65 1
    44   19   66 1
    45   20   21 1
    46   20   67 1
    47   20   68 1
    48   21   22 1
    49   21   69 1
    50   21   70 1
    51   22   71 1
    52   22   72 1
    53   23   24 am
    54   23   73 1
    55   24   25 2
    56   24   26 1
    57   26   27 1
    58   26   28 1
    59   26   31 1
    60   28   29 1
    61   28   74 1
    62   28   75 1
    63   29   30 1
    64   29   76 1
    65   29   77 1
    66   30   78 1
    67   30   79 1
    68   30   80 1
    69   31   32 1
    70   32   33 2
    71   32   34 1
    72   32   43 1
    73   34   35 1
    74   34   81 1
    75   34   82 1
    76   35   36 1
    77   35   83 1
    78   35   84 1
    79   36   37 1
    80   36   85 1
    81   36   86 1
    82   37   42 ar
    83   37   38 ar
    84   38   39 ar
    85   38   87 1
    86   39   40 ar
    87   39   88 1
    88   40   41 ar
    89   40   89 1
    90   41   42 ar
    91   41   90 1
    92   42   91 1
    93   44   92 1
@<TRIPOS>MOLECULE
CHEMBL353900
   90    92     0     0     0
SMALL
USER_CHARGES

@<TRIPOS>ATOM
      1 C1         -2.4521    1.5972   -0.0954 C.3       1 <0>        -0.1447
      2 C2         -2.0342    0.2751   -0.7421 C.3       1 <0>        -0.1063
      3 C3         -1.0040    0.5475   -1.8400 C.3       1 <0>        -0.1562
      4 C4         -1.4189   -0.6396    0.3190 C.3       1 <0>        -0.1209
      5 C5         -1.1519   -2.0181   -0.2887 C.3       1 <0>         0.1312
      6 C6         -2.4628   -2.6835   -0.6200 C.2       1 <0>         0.5205
      7 O1         -2.8392   -3.6376    0.0273 O.2       1 <0>        -0.5108
      8 N1         -3.2170   -2.2183   -1.6355 N.am      1 <0>        -0.7276
      9 C7         -4.5296   -2.8108   -1.9043 C.3       1 <0>         0.1157
     10 H1         -4.4962   -3.8795   -1.6922 H         1 <0>         0.1190
     11 C8         -5.5811   -2.1467   -1.0131 C.3       1 <0>        -0.1217
     12 C9         -5.2842   -2.4687    0.4528 C.3       1 <0>        -0.0810
     13 C10        -5.4457   -3.9719    0.6876 C.3       1 <0>        -0.1096
     14 C11        -5.1488   -4.2939    2.1536 C.3       1 <0>        -0.1105
     15 C12        -6.1241   -3.5298    3.0512 C.3       1 <0>        -0.1211
     16 C13        -5.9625   -2.0266    2.8164 C.3       1 <0>        -0.1169
     17 C14        -6.2595   -1.7046    1.3505 C.3       1 <0>        -0.1143
     18 C15        -4.8959   -2.5937   -3.3739 C.3       1 <0>         0.1113
     19 C16        -3.8602   -3.2479   -4.2516 C.2       1 <0>         0.4317
     20 O2         -3.1622   -2.5715   -4.9694 O.2       1 <0>        -0.4940
     21 O3         -3.7131   -4.5820   -4.2360 O.3       1 <0>        -0.3406
     22 C17        -2.7121   -5.1344   -5.0934 C.3       1 <0>         0.0788
     23 C18        -2.1608   -6.4192   -4.4719 C.3       1 <0>        -0.1493
     24 C19        -3.3275   -5.4512   -6.4578 C.3       1 <0>        -0.1725
     25 O4         -4.9397   -1.1927   -3.6519 O.3       1 <0>        -0.5180
     26 N2         -0.4157   -2.8416    0.6736 N.am      1 <0>        -0.7159
     27 C20         0.9198   -2.7059    0.7939 C.2       1 <0>         0.5035
     28 O5          1.4998   -1.8406    0.1727 O.2       1 <0>        -0.4996
     29 C21         1.6924   -3.6292    1.7004 C.3       1 <0>         0.1565
     30 H2          1.2989   -4.6415    1.6087 H         1 <0>         0.1102
     31 C22         1.5523   -3.1568    3.1489 C.3       1 <0>        -0.0916
     32 C23         2.2212   -4.1469    4.0671 C.ar      1 <0>        -0.0791
     33 C24         1.5007   -5.2087    4.5814 C.ar      1 <0>        -0.1161
     34 C25         2.1142   -6.1170    5.4237 C.ar      1 <0>        -0.1176
     35 C26         3.4484   -5.9637    5.7514 C.ar      1 <0>        -0.1203
     36 C27         4.1691   -4.9025    5.2364 C.ar      1 <0>        -0.1182
     37 C28         3.5567   -3.9966    4.3907 C.ar      1 <0>        -0.1042
     38 N3          3.1066   -3.6184    1.3179 N.am      1 <0>        -0.6073
     39 C29         3.8540   -4.8017    0.8762 C.3       1 <0>         0.1055
     40 C30         5.1206   -4.2538    0.1821 C.3       1 <0>        -0.1305
     41 C31         5.2832   -2.8759    0.8648 C.3       1 <0>        -0.1557
     42 C32         3.8848   -2.5224    1.3209 C.2       1 <0>         0.5254
     43 O6          3.5196   -1.4121    1.6447 O.2       1 <0>        -0.5051
     44 H3         -2.8904    2.2488   -0.8514 H         1 <0>         0.0589
     45 H4         -3.1860    1.4031    0.6867 H         1 <0>         0.0553
     46 H5         -1.5776    2.0816    0.3390 H         1 <0>         0.0575
     47 H6         -2.9087   -0.2094   -1.1765 H         1 <0>         0.0739
     48 H7         -0.1625    1.0984   -1.4200 H         1 <0>         0.0642
     49 H8         -0.6507   -0.3988   -2.2496 H         1 <0>         0.0522
     50 H9         -1.4649    1.1369   -2.6326 H         1 <0>         0.0598
     51 H10        -0.4809   -0.2093    0.6699 H         1 <0>         0.0882
     52 H11        -2.1088   -0.7393    1.1570 H         1 <0>         0.0714
     53 H12        -0.5613   -1.9061   -1.1979 H         1 <0>         0.1086
     54 H13        -2.8907   -1.4912   -2.1884 H         1 <0>         0.4000
     55 H14        -5.5531   -1.0671   -1.1609 H         1 <0>         0.0758
     56 H15        -6.5697   -2.5237   -1.2749 H         1 <0>         0.0788
     57 H16        -4.2627   -2.1715    0.6904 H         1 <0>         0.0742
     58 H17        -6.4671   -4.2690    0.4500 H         1 <0>         0.0496
     59 H18        -4.7509   -4.5163    0.0481 H         1 <0>         0.0788
     60 H19        -5.2638   -5.3648    2.3208 H         1 <0>         0.0545
     61 H20        -4.1273   -3.9968    2.3912 H         1 <0>         0.0621
     62 H21        -7.1455   -3.8270    2.8137 H         1 <0>         0.0582
     63 H22        -5.9125   -3.7592    4.0956 H         1 <0>         0.0564
     64 H23        -6.6574   -1.4822    3.4560 H         1 <0>         0.0578
     65 H24        -4.9411   -1.7294    3.0540 H         1 <0>         0.0577
     66 H25        -6.1444   -0.6336    1.1832 H         1 <0>         0.0572
     67 H26        -7.2809   -2.0017    1.1129 H         1 <0>         0.0600
     68 H27        -5.8725   -3.0346   -3.5738 H         1 <0>         0.1542
     69 H28        -1.9030   -4.4148   -5.2180 H         1 <0>         0.0823
     70 H29        -2.9699   -7.1389   -4.3473 H         1 <0>         0.0697
     71 H30        -1.3973   -6.8405   -5.1259 H         1 <0>         0.0794
     72 H31        -1.7223   -6.1935   -3.4998 H         1 <0>         0.0635
     73 H32        -4.1367   -6.1708   -6.3333 H         1 <0>         0.0682
     74 H33        -3.7203   -4.5359   -6.9006 H         1 <0>         0.0611
     75 H34        -2.5640   -5.8725   -7.1118 H         1 <0>         0.0765
     76 H35        -4.1027   -0.7344   -3.4958 H         1 <0>         0.3801
     77 H36        -0.8894   -3.4847    1.2241 H         1 <0>         0.4095
     78 H37         2.0252   -2.1810    3.2602 H         1 <0>         0.0969
     79 H38         0.4957   -3.0798    3.4053 H         1 <0>         0.0873
     80 H39         0.4583   -5.3284    4.3253 H         1 <0>         0.1218
     81 H40         1.5512   -6.9461    5.8260 H         1 <0>         0.1222
     82 H41         3.9276   -6.6729    6.4100 H         1 <0>         0.1212
     83 H42         5.2114   -4.7826    5.4927 H         1 <0>         0.1212
     84 H43         4.1207   -3.1696    3.9854 H         1 <0>         0.1158
     85 H44         4.1294   -5.4156    1.7338 H         1 <0>         0.0745
     86 H45         3.2588   -5.3824    0.1714 H         1 <0>         0.0752
     87 H46         5.9816   -4.8919    0.3814 H         1 <0>         0.0911
     88 H47         4.9601   -4.1414   -0.8901 H         1 <0>         0.0815
     89 H48         5.9592   -2.9496    1.7166 H         1 <0>         0.1027
     90 H49         5.6468   -2.1370    0.1508 H         1 <0>         0.1009
@<TRIPOS>BOND
     1    1    2 1
     2    1   44 1
     3    1   45 1
     4    1   46 1
     5    2    3 1
     6    2    4 1
     7    2   47 1
     8    3   48 1
     9    3   49 1
    10    3   50 1
    11    4    5 1
    12    4   51 1
    13    4   52 1
    14    5    6 1
    15    5   26 1
    16    5   53 1
    17    6    7 2
    18    6    8 am
    19    8    9 1
    20    8   54 1
    21    9   10 1
    22    9   11 1
    23    9   18 1
    24   11   12 1
    25   11   55 1
    26   11   56 1
    27   12   17 1
    28   12   13 1
    29   12   57 1
    30   13   14 1
    31   13   58 1
    32   13   59 1
    33   14   15 1
    34   14   60 1
    35   14   61 1
    36   15   16 1
    37   15   62 1
    38   15   63 1
    39   16   17 1
    40   16   64 1
    41   16   65 1
    42   17   66 1
    43   17   67 1
    44   18   19 1
    45   18   25 1
    46   18   68 1
    47   19   20 2
    48   19   21 1
    49   21   22 1
    50   22   23 1
    51   22   24 1
    52   22   69 1
    53   23   70 1
    54   23   71 1
    55   23   72 1
    56   24   73 1
    57   24   74 1
    58   24   75 1
    59   25   76 1
    60   26   27 am
    61   26   77 1
    62   27   28 2
    63   27   29 1
    64   29   30 1
    65   29   31 1
    66   29   38 1
    67   31   32 1
    68   31   78 1
    69   31   79 1
    70   32   37 ar
    71   32   33 ar
    72   33   34 ar
    73   33   80 1
    74   34   35 ar
    75   34   81 1
    76   35   36 ar
    77   35   82 1
    78   36   37 ar
    79   36   83 1
    80   37   84 1
    81   38   42 am
    82   38   39 1
    83   39   40 1
    84   39   85 1
    85   39   86 1
    86   40   41 1
    87   40   87 1
    88   40   88 1
    89   41   42 1
    90   41   89 1
    91   41   90 1
    92   42   43 2
@<TRIPOS>MOLECULE
CHEMBL353900__1
   90    92     0     0     0
SMALL
USER_CHARGES

@<TRIPOS>ATOM
      1 C1         -2.4469    1.6016   -0.0983 C.3       1 <0>        -0.1447
      2 C2         -2.0322    0.2768   -0.7418 C.3       1 <0>        -0.1072
      3 C3         -0.9999    0.5439   -1.8390 C.3       1 <0>        -0.1537
      4 C4         -1.4209   -0.6375    0.3219 C.3       1 <0>        -0.1211
      5 C5         -1.1574   -2.0180   -0.2827 C.3       1 <0>         0.1320
      6 C6         -2.4700   -2.6801   -0.6142 C.2       1 <0>         0.5171
      7 O1         -2.8501   -3.6318    0.0345 O.2       1 <0>        -0.5164
      8 N1         -3.2215   -2.2146   -1.6315 N.am      1 <0>        -0.7152
      9 C7         -4.5356   -2.8035   -1.9007 C.3       1 <0>         0.1180
     10 H1         -4.5058   -3.8718   -1.6865 H         1 <0>         0.1181
     11 C8         -5.5861   -2.1343   -1.0121 C.3       1 <0>        -0.1389
     12 C9         -5.2919   -2.4544    0.4549 C.3       1 <0>        -0.0762
     13 C10        -5.4584   -3.9566    0.6924 C.3       1 <0>        -0.1082
     14 C11        -5.1641   -4.2767    2.1594 C.3       1 <0>        -0.1102
     15 C12        -6.1381   -3.5078    3.0544 C.3       1 <0>        -0.1214
     16 C13        -5.9716   -2.0055    2.8168 C.3       1 <0>        -0.1164
     17 C14        -6.2659   -1.6855    1.3499 C.3       1 <0>        -0.1155
     18 C15        -4.8995   -2.5882   -3.3711 C.3       1 <0>         0.1104
     19 C16        -6.1925   -3.2990   -3.6779 C.2       1 <0>         0.4382
     20 O2         -7.1730   -2.6635   -3.9856 O.2       1 <0>        -0.4899
     21 O3         -6.2549   -4.6381   -3.6094 O.3       1 <0>        -0.3419
     22 C17        -7.5123   -5.2453   -3.9131 C.3       1 <0>         0.0779
     23 C18        -7.2769   -6.6346   -4.5092 C.3       1 <0>        -0.1509
     24 C19        -8.3394   -5.3733   -2.6323 C.3       1 <0>        -0.1717
     25 O4         -5.0528   -1.1902   -3.6241 O.3       1 <0>        -0.5253
     26 N2         -0.4249   -2.8419    0.6822 N.am      1 <0>        -0.7161
     27 C20         0.9108   -2.7099    0.8040 C.2       1 <0>         0.5038
     28 O5          1.4942   -1.8477    0.1818 O.2       1 <0>        -0.4999
     29 C21         1.6794   -3.6337    1.7133 C.3       1 <0>         0.1562
     30 H2          1.2830   -4.6451    1.6231 H         1 <0>         0.1104
     31 C22         1.5388   -3.1580    3.1607 C.3       1 <0>        -0.0917
     32 C23         2.2036   -4.1484    4.0818 C.ar      1 <0>        -0.0789
     33 C24         1.4792   -5.2069    4.5972 C.ar      1 <0>        -0.1162
     34 C25         2.0889   -6.1154    5.4421 C.ar      1 <0>        -0.1177
     35 C26         3.4231   -5.9655    5.7712 C.ar      1 <0>        -0.1204
     36 C27         4.1477   -4.9075    5.2551 C.ar      1 <0>        -0.1182
     37 C28         3.5391   -4.0015    4.4068 C.ar      1 <0>        -0.1043
     38 N3          3.0941   -3.6280    1.3326 N.am      1 <0>        -0.6072
     39 C29         3.8385   -4.8145    0.8943 C.3       1 <0>         0.1054
     40 C30         5.1077   -4.2717    0.2007 C.3       1 <0>        -0.1305
     41 C31         5.2735   -2.8930    0.8809 C.3       1 <0>        -0.1557
     42 C32         3.8756   -2.5344    1.3345 C.2       1 <0>         0.5254
     43 O6          3.5134   -1.4223    1.6556 O.2       1 <0>        -0.5054
     44 H3         -2.8824    2.2529   -0.8561 H         1 <0>         0.0582
     45 H4         -3.1823    1.4113    0.6834 H         1 <0>         0.0538
     46 H5         -1.5715    2.0842    0.3361 H         1 <0>         0.0567
     47 H6         -2.9076   -0.2058   -1.1762 H         1 <0>         0.0785
     48 H7         -0.1573    1.0933   -1.4192 H         1 <0>         0.0619
     49 H8         -0.6489   -0.4043   -2.2462 H         1 <0>         0.0530
     50 H9         -1.4582    1.1331   -2.6334 H         1 <0>         0.0593
     51 H10        -0.4820   -0.2093    0.6729 H         1 <0>         0.0874
     52 H11        -2.1121   -0.7334    1.1593 H         1 <0>         0.0698
     53 H12        -0.5653   -1.9098   -1.1914 H         1 <0>         0.1105
     54 H13        -2.8923   -1.4896   -2.1855 H         1 <0>         0.4104
     55 H14        -5.5546   -1.0552   -1.1619 H         1 <0>         0.0725
     56 H15        -6.5756   -2.5088   -1.2743 H         1 <0>         0.0717
     57 H16        -4.2698   -2.1599    0.6930 H         1 <0>         0.0775
     58 H17        -6.4804   -4.2511    0.4542 H         1 <0>         0.0469
     59 H18        -4.7645   -4.5044    0.0548 H         1 <0>         0.0801
     60 H19        -5.2827   -5.3469    2.3286 H         1 <0>         0.0550
     61 H20        -4.1421   -3.9822    2.3976 H         1 <0>         0.0635
     62 H21        -7.1602   -3.8022    2.8162 H         1 <0>         0.0575
     63 H22        -5.9285   -3.7358    4.0995 H         1 <0>         0.0574
     64 H23        -6.6655   -1.4578    3.4544 H         1 <0>         0.0583
     65 H24        -4.9496   -1.7111    3.0550 H         1 <0>         0.0589
     66 H25        -6.1473   -0.6153    1.1806 H         1 <0>         0.0576
     67 H26        -7.2880   -1.9799    1.1117 H         1 <0>         0.0586
     68 H27        -4.1066   -2.9871   -4.0038 H         1 <0>         0.1451
     69 H28        -8.0498   -4.6276   -4.6325 H         1 <0>         0.0843
     70 H29        -6.7394   -7.2524   -3.7897 H         1 <0>         0.0695
     71 H30        -8.2360   -7.0978   -4.7408 H         1 <0>         0.0801
     72 H31        -6.6876   -6.5435   -5.4216 H         1 <0>         0.0651
     73 H32        -7.8019   -5.9911   -1.9129 H         1 <0>         0.0685
     74 H33        -8.5071   -4.3836   -2.2076 H         1 <0>         0.0601
     75 H34        -9.2985   -5.8365   -2.8640 H         1 <0>         0.0764
     76 H35        -5.7431   -0.7680   -3.0946 H         1 <0>         0.3883
     77 H36        -0.9013   -3.4824    1.2333 H         1 <0>         0.4094
     78 H37         2.0146   -2.1835    3.2707 H         1 <0>         0.0968
     79 H38         0.4821   -3.0773    3.4156 H         1 <0>         0.0873
     80 H39         0.4368   -5.3240    4.3400 H         1 <0>         0.1219
     81 H40         1.5228   -6.9420    5.8453 H         1 <0>         0.1221
     82 H41         3.8993   -6.6749    6.4319 H         1 <0>         0.1211
     83 H42         5.1900   -4.7902    5.5125 H         1 <0>         0.1212
     84 H43         4.1062   -3.1769    4.0005 H         1 <0>         0.1159
     85 H44         4.1110   -5.4275    1.7534 H         1 <0>         0.0743
     86 H45         3.2425   -5.3947    0.1898 H         1 <0>         0.0756
     87 H46         5.9665   -4.9120    0.4024 H         1 <0>         0.0909
     88 H47         4.9489   -4.1610   -0.8719 H         1 <0>         0.0818
     89 H48         5.9482   -2.9670    1.7337 H         1 <0>         0.1024
     90 H49         5.6403   -2.1566    0.1659 H         1 <0>         0.1009
@<TRIPOS>BOND
     1    1    2 1
     2    1   44 1
     3    1   45 1
     4    1   46 1
     5    2    3 1
     6    2    4 1
     7    2   47 1
     8    3   48 1
     9    3   49 1
    10    3   50 1
    11    4    5 1
    12    4   51 1
    13    4   52 1
    14    5    6 1
    15    5   26 1
    16    5   53 1
    17    6    7 2
    18    6    8 am
    19    8    9 1
    20    8   54 1
    21    9   10 1
    22    9   11 1
    23    9   18 1
    24   11   12 1
    25   11   55 1
    26   11   56 1
    27   12   17 1
    28   12   13 1
    29   12   57 1
    30   13   14 1
    31   13   58 1
    32   13   59 1
    33   14   15 1
    34   14   60 1
    35   14   61 1
    36   15   16 1
    37   15   62 1
    38   15   63 1
    39   16   17 1
    40   16   64 1
    41   16   65 1
    42   17   66 1
    43   17   67 1
    44   18   19 1
    45   18   25 1
    46   18   68 1
    47   19   20 2
    48   19   21 1
    49   21   22 1
    50   22   23 1
    51   22   24 1
    52   22   69 1
    53   23   70 1
    54   23   71 1
    55   23   72 1
    56   24   73 1
    57   24   74 1
    58   24   75 1
    59   25   76 1
    60   26   27 am
    61   26   77 1
    62   27   28 2
    63   27   29 1
    64   29   30 1
    65   29   31 1
    66   29   38 1
    67   31   32 1
    68   31   78 1
    69   31   79 1
    70   32   37 ar
    71   32   33 ar
    72   33   34 ar
    73   33   80 1
    74   34   35 ar
    75   34   81 1
    76   35   36 ar
    77   35   82 1
    78   36   37 ar
    79   36   83 1
    80   37   84 1
    81   38   42 am
    82   38   39 1
    83   39   40 1
    84   39   85 1
    85   39   86 1
    86   40   41 1
    87   40   87 1
    88   40   88 1
    89   41   42 1
    90   41   89 1
    91   41   90 1
    92   42   43 2
@<TRIPOS>MOLECULE
CHEMBL353900__2
   90    92     0     0     0
SMALL
USER_CHARGES

@<TRIPOS>ATOM
      1 C1         -0.0187    1.5258    0.0104 C.3       1 <0>        -0.1475
      2 C2          0.0021   -0.0041    0.0020 C.3       1 <0>        -0.0885
      3 C3          0.7421   -0.5109    1.2415 C.3       1 <0>        -0.1403
      4 C4         -1.4333   -0.5336    0.0129 C.3       1 <0>        -0.1201
      5 C5         -1.4157   -2.0577   -0.1212 C.3       1 <0>         0.1291
      6 C6         -2.8192   -2.5900    0.0125 C.2       1 <0>         0.5170
      7 O1         -3.3197   -3.2157   -0.8979 O.2       1 <0>        -0.5087
      8 N1         -3.5181   -2.3707    1.1439 N.am      1 <0>        -0.7271
      9 C7         -4.8824   -2.8882    1.2739 C.3       1 <0>         0.1196
     10 H1         -5.3810   -2.8456    0.3056 H         1 <0>         0.1177
     11 C8         -4.8338   -4.3384    1.7591 C.3       1 <0>        -0.1220
     12 C9         -4.1698   -5.2112    0.6921 C.3       1 <0>        -0.0812
     13 C10        -5.0429   -5.2337   -0.5641 C.3       1 <0>        -0.1063
     14 C11        -4.3790   -6.1065   -1.6310 C.3       1 <0>        -0.1099
     15 C12        -4.2174   -7.5310   -1.0966 C.3       1 <0>        -0.1207
     16 C13        -3.3443   -7.5084    0.1596 C.3       1 <0>        -0.1171
     17 C14        -4.0082   -6.6357    1.2266 C.3       1 <0>        -0.1148
     18 C15        -5.6562   -2.0383    2.2838 C.3       1 <0>         0.1118
     19 C16        -5.7041   -0.6099    1.8059 C.2       1 <0>         0.4328
     20 O2         -5.1491    0.2576    2.4378 O.2       1 <0>        -0.4940
     21 O3         -6.3635   -0.3012    0.6781 O.3       1 <0>        -0.3410
     22 C17        -6.3678    1.0725    0.2844 C.3       1 <0>         0.0795
     23 C18        -6.4536    1.1658   -1.2403 C.3       1 <0>        -0.1494
     24 C19        -7.5743    1.7777    0.9072 C.3       1 <0>        -0.1730
     25 O4         -5.0026   -2.0941    3.5533 O.3       1 <0>        -0.5187
     26 N2         -0.8765   -2.4263   -1.4325 N.am      1 <0>        -0.7118
     27 C20         0.4560   -2.5245   -1.6099 C.2       1 <0>         0.5016
     28 O5          1.2086   -2.3077   -0.6839 O.2       1 <0>        -0.4900
     29 C21         1.0106   -2.9037   -2.9588 C.3       1 <0>         0.1572
     30 H2          0.4374   -2.4052   -3.7406 H         1 <0>         0.1074
     31 C22         0.9130   -4.4195   -3.1427 C.3       1 <0>        -0.0908
     32 C23         1.3529   -4.7858   -4.5367 C.ar      1 <0>        -0.0781
     33 C24         0.4291   -4.8288   -5.5641 C.ar      1 <0>        -0.1160
     34 C25         0.8326   -5.1649   -6.8428 C.ar      1 <0>        -0.1177
     35 C26         2.1600   -5.4575   -7.0942 C.ar      1 <0>        -0.1206
     36 C27         3.0840   -5.4136   -6.0670 C.ar      1 <0>        -0.1183
     37 C28         2.6812   -5.0733   -4.7891 C.ar      1 <0>        -0.1043
     38 N3          2.4137   -2.4909   -3.0435 N.am      1 <0>        -0.6065
     39 C29         2.9402   -1.5447   -4.0342 C.3       1 <0>         0.1059
     40 C30         4.3098   -1.0902   -3.4828 C.3       1 <0>        -0.1301
     41 C31         4.7050   -2.2905   -2.5917 C.3       1 <0>        -0.1559
     42 C32         3.3832   -2.9257   -2.2202 C.2       1 <0>         0.5265
     43 O6          3.2223   -3.7145   -1.3131 O.2       1 <0>        -0.5046
     44 H3          1.0039    1.9031    0.0027 H         1 <0>         0.0546
     45 H4         -0.5459    1.8868   -0.8726 H         1 <0>         0.0492
     46 H5         -0.5289    1.8773    0.9072 H         1 <0>         0.0528
     47 H6          0.5123   -0.3556   -0.8948 H         1 <0>         0.0766
     48 H7          0.2319   -0.1594    2.1383 H         1 <0>         0.0415
     49 H8          0.7568   -1.6008    1.2356 H         1 <0>         0.0722
     50 H9          1.7647   -0.1336    1.2338 H         1 <0>         0.0498
     51 H10        -1.9156   -0.2570    0.9504 H         1 <0>         0.0725
     52 H11        -1.9862   -0.1019   -0.8214 H         1 <0>         0.0691
     53 H12        -0.7891   -2.4841    0.6622 H         1 <0>         0.1179
     54 H13        -3.1177   -1.8703    1.8720 H         1 <0>         0.3979
     55 H14        -4.2582   -4.3933    2.6831 H         1 <0>         0.0749
     56 H15        -5.8476   -4.6950    1.9408 H         1 <0>         0.0779
     57 H16        -3.1899   -4.8020    0.4462 H         1 <0>         0.0756
     58 H17        -6.0229   -5.6429   -0.3182 H         1 <0>         0.0480
     59 H18        -5.1581   -4.2189   -0.9448 H         1 <0>         0.0777
     60 H19        -5.0010   -6.1226   -2.5260 H         1 <0>         0.0536
     61 H20        -3.3991   -5.6973   -1.8769 H         1 <0>         0.0630
     62 H21        -5.1973   -7.9401   -0.8507 H         1 <0>         0.0577
     63 H22        -3.7444   -8.1527   -1.8567 H         1 <0>         0.0561
     64 H23        -3.2292   -8.5233    0.5403 H         1 <0>         0.0575
     65 H24        -2.3644   -7.0993   -0.0863 H         1 <0>         0.0580
     66 H25        -3.3862   -6.6196    2.1215 H         1 <0>         0.0565
     67 H26        -4.9881   -7.0448    1.4725 H         1 <0>         0.0596
     68 H27        -6.6713   -2.4233    2.3805 H         1 <0>         0.1530
     69 H28        -5.4505    1.5514    0.6267 H         1 <0>         0.0826
     70 H29        -7.3709    0.6868   -1.5826 H         1 <0>         0.0694
     71 H30        -6.4569    2.2136   -1.5406 H         1 <0>         0.0792
     72 H31        -5.5940    0.6634   -1.6840 H         1 <0>         0.0638
     73 H32        -8.4917    1.2987    0.5649 H         1 <0>         0.0680
     74 H33        -7.5132    1.7112    1.9935 H         1 <0>         0.0610
     75 H34        -7.5777    2.8255    0.6069 H         1 <0>         0.0763
     76 H35        -4.0929   -1.7663    3.5421 H         1 <0>         0.3812
     77 H36        -1.4784   -2.5997   -2.1731 H         1 <0>         0.4080
     78 H37         1.5566   -4.9158   -2.4163 H         1 <0>         0.0960
     79 H38        -0.1184   -4.7381   -2.9916 H         1 <0>         0.0881
     80 H39        -0.6080   -4.6002   -5.3677 H         1 <0>         0.1216
     81 H40         0.1107   -5.1992   -7.6454 H         1 <0>         0.1218
     82 H41         2.4752   -5.7207   -8.0931 H         1 <0>         0.1209
     83 H42         4.1210   -5.6425   -6.2633 H         1 <0>         0.1209
     84 H43         3.4038   -5.0354   -3.9873 H         1 <0>         0.1155
     85 H44         3.0665   -2.0387   -4.9976 H         1 <0>         0.0735
     86 H45         2.2707   -0.6902   -4.1326 H         1 <0>         0.0748
     87 H46         5.0285   -0.9506   -4.2903 H         1 <0>         0.0902
     88 H47         4.2094   -0.1808   -2.8904 H         1 <0>         0.0815
     89 H48         5.3261   -2.9914   -3.1493 H         1 <0>         0.1017
     90 H49         5.2246   -1.9468   -1.6973 H         1 <0>         0.1004
@<TRIPOS>BOND
     1    1    2 1
     2    1   44 1
     3    1   45 1
     4    1   46 1
     5    2    3 1
     6    2    4 1
     7    2   47 1
     8    3   48 1
     9    3   49 1
    10    3   50 1
    11    4    5 1
    12    4   51 1
    13    4   52 1
    14    5    6 1
    15    5   26 1
    16    5   53 1
    17    6    7 2
    18    6    8 am
    19    8    9 1
    20    8   54 1
    21    9   10 1
    22    9   11 1
    23    9   18 1
    24   11   12 1
    25   11   55 1
    26   11   56 1
    27   12   17 1
    28   12   13 1
    29   12   57 1
    30   13   14 1
    31   13   58 1
    32   13   59 1
    33   14   15 1
    34   14   60 1
    35   14   61 1
    36   15   16 1
    37   15   62 1
    38   15   63 1
    39   16   17 1
    40   16   64 1
    41   16   65 1
    42   17   66 1
    43   17   67 1
    44   18   19 1
    45   18   25 1
    46   18   68 1
    47   19   20 2
    48   19   21 1
    49   21   22 1
    50   22   23 1
    51   22   24 1
    52   22   69 1
    53   23   70 1
    54   23   71 1
    55   23   72 1
    56   24   73 1
    57   24   74 1
    58   24   75 1
    59   25   76 1
    60   26   27 am
    61   26   77 1
    62   27   28 2
    63   27   29 1
    64   29   30 1
    65   29   31 1
    66   29   38 1
    67   31   32 1
    68   31   78 1
    69   31   79 1
    70   32   37 ar
    71   32   33 ar
    72   33   34 ar
    73   33   80 1
    74   34   35 ar
    75   34   81 1
    76   35   36 ar
    77   35   82 1
    78   36   37 ar
    79   36   83 1
    80   37   84 1
    81   38   42 am
    82   38   39 1
    83   39   40 1
    84   39   85 1
    85   39   86 1
    86   40   41 1
    87   40   87 1
    88   40   88 1
    89   41   42 1
    90   41   89 1
    91   41   90 1
    92   42   43 2
@<TRIPOS>MOLECULE
CHEMBL353900__3
   90    92     0     0     0
SMALL
USER_CHARGES

@<TRIPOS>ATOM
      1 C1         -0.0187    1.5258    0.0104 C.3       1 <0>        -0.1476
      2 C2          0.0021   -0.0041    0.0020 C.3       1 <0>        -0.0895
      3 C3          0.7421   -0.5109    1.2415 C.3       1 <0>        -0.1403
      4 C4         -1.4333   -0.5336    0.0129 C.3       1 <0>        -0.1213
      5 C5         -1.4157   -2.0577   -0.1212 C.3       1 <0>         0.1299
      6 C6         -2.8192   -2.5900    0.0125 C.2       1 <0>         0.5139
      7 O1         -3.3197   -3.2157   -0.8979 O.2       1 <0>        -0.5146
      8 N1         -3.5181   -2.3707    1.1439 N.am      1 <0>        -0.7146
      9 C7         -4.8824   -2.8882    1.2739 C.3       1 <0>         0.1216
     10 H1         -5.3810   -2.8456    0.3056 H         1 <0>         0.1170
     11 C8         -4.8338   -4.3384    1.7591 C.3       1 <0>        -0.1394
     12 C9         -4.1698   -5.2112    0.6921 C.3       1 <0>        -0.0764
     13 C10        -5.0429   -5.2337   -0.5641 C.3       1 <0>        -0.1048
     14 C11        -4.3790   -6.1065   -1.6310 C.3       1 <0>        -0.1096
     15 C12        -4.2174   -7.5310   -1.0966 C.3       1 <0>        -0.1209
     16 C13        -3.3443   -7.5084    0.1596 C.3       1 <0>        -0.1166
     17 C14        -4.0082   -6.6357    1.2266 C.3       1 <0>        -0.1160
     18 C15        -5.6562   -2.0383    2.2838 C.3       1 <0>         0.1112
     19 C16        -7.0924   -2.4927    2.3268 C.2       1 <0>         0.4378
     20 O2         -7.5402   -2.9853    3.3352 O.2       1 <0>        -0.4902
     21 O3         -7.8742   -2.3501    1.2451 O.3       1 <0>        -0.3420
     22 C17        -9.2251   -2.8026    1.3567 C.3       1 <0>         0.0779
     23 C18       -10.1219   -1.9601    0.4474 C.3       1 <0>        -0.1508
     24 C19        -9.3075   -4.2712    0.9355 C.3       1 <0>        -0.1718
     25 O4         -5.0706   -2.1865    3.5788 O.3       1 <0>        -0.5260
     26 N2         -0.8765   -2.4263   -1.4325 N.am      1 <0>        -0.7120
     27 C20         0.4560   -2.5245   -1.6099 C.2       1 <0>         0.5014
     28 O5          1.2086   -2.3077   -0.6839 O.2       1 <0>        -0.4904
     29 C21         1.0106   -2.9037   -2.9588 C.3       1 <0>         0.1569
     30 H2          0.4374   -2.4052   -3.7406 H         1 <0>         0.1076
     31 C22         0.9130   -4.4195   -3.1427 C.3       1 <0>        -0.0909
     32 C23         1.3529   -4.7858   -4.5367 C.ar      1 <0>        -0.0780
     33 C24         0.4291   -4.8288   -5.5641 C.ar      1 <0>        -0.1160
     34 C25         0.8326   -5.1649   -6.8428 C.ar      1 <0>        -0.1178
     35 C26         2.1600   -5.4575   -7.0942 C.ar      1 <0>        -0.1207
     36 C27         3.0840   -5.4136   -6.0670 C.ar      1 <0>        -0.1184
     37 C28         2.6812   -5.0733   -4.7891 C.ar      1 <0>        -0.1044
     38 N3          2.4137   -2.4909   -3.0435 N.am      1 <0>        -0.6065
     39 C29         2.9402   -1.5447   -4.0342 C.3       1 <0>         0.1059
     40 C30         4.3098   -1.0902   -3.4828 C.3       1 <0>        -0.1301
     41 C31         4.7050   -2.2905   -2.5917 C.3       1 <0>        -0.1560
     42 C32         3.3832   -2.9257   -2.2202 C.2       1 <0>         0.5265
     43 O6          3.2223   -3.7145   -1.3131 O.2       1 <0>        -0.5048
     44 H3          1.0039    1.9031    0.0027 H         1 <0>         0.0538
     45 H4         -0.5459    1.8868   -0.8726 H         1 <0>         0.0498
     46 H5         -0.5289    1.8773    0.9072 H         1 <0>         0.0530
     47 H6          0.5123   -0.3556   -0.8948 H         1 <0>         0.0761
     48 H7          0.2319   -0.1594    2.1383 H         1 <0>         0.0419
     49 H8          0.7568   -1.6008    1.2356 H         1 <0>         0.0720
     50 H9          1.7647   -0.1336    1.2338 H         1 <0>         0.0489
     51 H10        -1.9156   -0.2570    0.9504 H         1 <0>         0.0755
     52 H11        -1.9862   -0.1019   -0.8214 H         1 <0>         0.0709
     53 H12        -0.7891   -2.4841    0.6622 H         1 <0>         0.1176
     54 H13        -3.1177   -1.8703    1.8720 H         1 <0>         0.4084
     55 H14        -4.2582   -4.3933    2.6831 H         1 <0>         0.0718
     56 H15        -5.8476   -4.6950    1.9408 H         1 <0>         0.0708
     57 H16        -3.1899   -4.8020    0.4462 H         1 <0>         0.0790
     58 H17        -6.0229   -5.6429   -0.3182 H         1 <0>         0.0453
     59 H18        -5.1581   -4.2189   -0.9448 H         1 <0>         0.0789
     60 H19        -5.0010   -6.1226   -2.5260 H         1 <0>         0.0541
     61 H20        -3.3991   -5.6973   -1.8769 H         1 <0>         0.0643
     62 H21        -5.1973   -7.9401   -0.8507 H         1 <0>         0.0570
     63 H22        -3.7444   -8.1527   -1.8567 H         1 <0>         0.0571
     64 H23        -3.2292   -8.5233    0.5403 H         1 <0>         0.0580
     65 H24        -2.3644   -7.0993   -0.0863 H         1 <0>         0.0592
     66 H25        -3.3862   -6.6196    2.1215 H         1 <0>         0.0569
     67 H26        -4.9881   -7.0448    1.4725 H         1 <0>         0.0581
     68 H27        -5.6153   -0.9911    1.9842 H         1 <0>         0.1453
     69 H28        -9.5578   -2.7017    2.3897 H         1 <0>         0.0842
     70 H29        -9.7891   -2.0610   -0.5856 H         1 <0>         0.0695
     71 H30       -11.1523   -2.3053    0.5326 H         1 <0>         0.0800
     72 H31       -10.0632   -0.9139    0.7475 H         1 <0>         0.0651
     73 H32        -8.9747   -4.3721   -0.0976 H         1 <0>         0.0686
     74 H33        -8.6685   -4.8714    1.5832 H         1 <0>         0.0602
     75 H34       -10.3379   -4.6163    1.0206 H         1 <0>         0.0764
     76 H35        -5.0726   -3.0951    3.9097 H         1 <0>         0.3887
     77 H36        -1.4784   -2.5997   -2.1731 H         1 <0>         0.4081
     78 H37         1.5566   -4.9158   -2.4163 H         1 <0>         0.0959
     79 H38        -0.1184   -4.7381   -2.9916 H         1 <0>         0.0881
     80 H39        -0.6080   -4.6002   -5.3677 H         1 <0>         0.1217
     81 H40         0.1107   -5.1992   -7.6454 H         1 <0>         0.1218
     82 H41         2.4752   -5.7207   -8.0931 H         1 <0>         0.1208
     83 H42         4.1210   -5.6425   -6.2633 H         1 <0>         0.1208
     84 H43         3.4038   -5.0354   -3.9873 H         1 <0>         0.1155
     85 H44         3.0665   -2.0387   -4.9976 H         1 <0>         0.0733
     86 H45         2.2707   -0.6902   -4.1326 H         1 <0>         0.0751
     87 H46         5.0285   -0.9506   -4.2903 H         1 <0>         0.0901
     88 H47         4.2094   -0.1808   -2.8904 H         1 <0>         0.0816
     89 H48         5.3261   -2.9914   -3.1493 H         1 <0>         0.1016
     90 H49         5.2246   -1.9468   -1.6973 H         1 <0>         0.1003
@<TRIPOS>BOND
     1    1    2 1
     2    1   44 1
     3    1   45 1
     4    1   46 1
     5    2    3 1
     6    2    4 1
     7    2   47 1
     8    3   48 1
     9    3   49 1
    10    3   50 1
    11    4    5 1
    12    4   51 1
    13    4   52 1
    14    5    6 1
    15    5   26 1
    16    5   53 1
    17    6    7 2
    18    6    8 am
    19    8    9 1
    20    8   54 1
    21    9   10 1
    22    9   11 1
    23    9   18 1
    24   11   12 1
    25   11   55 1
    26   11   56 1
    27   12   17 1
    28   12   13 1
    29   12   57 1
    30   13   14 1
    31   13   58 1
    32   13   59 1
    33   14   15 1
    34   14   60 1
    35   14   61 1
    36   15   16 1
    37   15   62 1
    38   15   63 1
    39   16   17 1
    40   16   64 1
    41   16   65 1
    42   17   66 1
    43   17   67 1
    44   18   19 1
    45   18   25 1
    46   18   68 1
    47   19   20 2
    48   19   21 1
    49   21   22 1
    50   22   23 1
    51   22   24 1
    52   22   69 1
    53   23   70 1
    54   23   71 1
    55   23   72 1
    56   24   73 1
    57   24   74 1
    58   24   75 1
    59   25   76 1
    60   26   27 am
    61   26   77 1
    62   27   28 2
    63   27   29 1
    64   29   30 1
    65   29   31 1
    66   29   38 1
    67   31   32 1
    68   31   78 1
    69   31   79 1
    70   32   37 ar
    71   32   33 ar
    72   33   34 ar
    73   33   80 1
    74   34   35 ar
    75   34   81 1
    76   35   36 ar
    77   35   82 1
    78   36   37 ar
    79   36   83 1
    80   37   84 1
    81   38   42 am
    82   38   39 1
    83   39   40 1
    84   39   85 1
    85   39   86 1
    86   40   41 1
    87   40   87 1
    88   40   88 1
    89   41   42 1
    90   41   89 1
    91   41   90 1
    92   42   43 2
@<TRIPOS>MOLECULE
CHEMBL286580
   71    75     0     0     0
SMALL
USER_CHARGES

@<TRIPOS>ATOM
      1 C1         -0.0164    1.3567    0.0095 C.ar      1 <0>        -0.1071
      2 C2          1.1686    2.0905    0.0021 C.ar      1 <0>        -0.1108
      3 C3          2.3785    1.4675   -0.0131 C.ar      1 <0>        -0.1075
      4 C4          2.4375    0.0634   -0.0211 C.ar      1 <0>        -0.0569
      5 C5          3.6681   -0.6153   -0.0364 C.ar      1 <0>        -0.0773
      6 C6          3.6865   -1.9761   -0.0434 C.ar      1 <0>        -0.0981
      7 C7          2.5015   -2.7098   -0.0357 C.ar      1 <0>        -0.1000
      8 C8          1.2917   -2.0868   -0.0209 C.ar      1 <0>        -0.1002
      9 C9          1.2327   -0.6827   -0.0133 C.ar      1 <0>        -0.0434
     10 C10         0.0021   -0.0041    0.0020 C.ar      1 <0>        -0.1085
     11 C11         5.0079   -2.7004   -0.0602 C.3       1 <0>         0.1002
     12 O1          5.4390   -2.9361    1.2817 O.3       1 <0>        -0.3428
     13 C12         6.6892   -3.6214    1.3786 C.3       1 <0>         0.0776
     14 H1          6.8135   -4.2757    0.5157 H         1 <0>         0.0858
     15 C13         7.8294   -2.6015    1.4149 C.3       1 <0>        -0.0390
     16 N1          9.1149   -3.3028    1.5168 N.4       1 <0>        -0.4995
     17 C14         9.1770   -4.0478    2.7800 C.3       1 <0>        -0.0099
     18 C15         8.0886   -5.1233    2.7963 C.3       1 <0>        -0.1397
     19 C16         6.7165   -4.4566    2.6619 C.3       1 <0>        -0.0473
     20 H2          6.5404   -3.8099    3.5215 H         1 <0>         0.1034
     21 C17         5.6452   -5.5146    2.5974 C.ar      1 <0>        -0.1273
     22 C18         5.6688   -6.4601    1.5888 C.ar      1 <0>        -0.0783
     23 C19         4.6878   -7.4307    1.5273 C.ar      1 <0>        -0.1484
     24 C20         3.6785   -7.4565    2.4788 C.ar      1 <0>         0.1450
     25 C21         3.6573   -6.5070    3.4900 C.ar      1 <0>        -0.2036
     26 C22         4.6436   -5.5416    3.5502 C.ar      1 <0>        -0.0556
     27 O2          2.7120   -8.4101    2.4201 O.3       1 <0>        -0.3095
     28 C23         1.7044   -8.3757    3.4329 C.3       1 <0>         0.0631
     29 C24         0.7116   -9.5170    3.2035 C.3       1 <0>        -0.1204
     30 C25        -0.3672   -9.4802    4.2878 C.3       1 <0>         0.0691
     31 O3         -1.2944  -10.5462    4.0736 O.3       1 <0>        -0.3831
     32 C26        -2.3484  -10.6022    5.0370 C.3       1 <0>         0.1172
     33 C27        -3.2615  -11.7573    4.7161 C.ar      1 <0>         0.1192
     34 C28        -2.9896  -12.5601    3.6241 C.ar      1 <0>        -0.1495
     35 C29        -3.8358  -13.6201    3.3376 C.ar      1 <0>        -0.0759
     36 C30        -4.9288  -13.8340    4.1638 C.ar      1 <0>        -0.1721
     37 C31        -5.1367  -12.9895    5.2376 C.ar      1 <0>         0.1039
     38 N2         -4.3075  -11.9938    5.4832 N.ar      1 <0>        -0.4835
     39 H3         -0.9633    1.8757    0.0259 H         1 <0>         0.1281
     40 H4          1.1260    3.1696    0.0083 H         1 <0>         0.1274
     41 H5          3.2884    2.0491   -0.0194 H         1 <0>         0.1276
     42 H6          4.5943   -0.0599   -0.0428 H         1 <0>         0.1250
     43 H7          2.5441   -3.7890   -0.0419 H         1 <0>         0.1226
     44 H8          0.3816   -2.6684   -0.0154 H         1 <0>         0.1309
     45 H9         -0.9241   -0.5595    0.0082 H         1 <0>         0.1306
     46 H10         4.8935   -3.6529   -0.5777 H         1 <0>         0.0685
     47 H11         5.7491   -2.0921   -0.5784 H         1 <0>         0.0606
     48 H12         7.8125   -2.0057    0.5023 H         1 <0>         0.1340
     49 H13         7.7036   -1.9471    2.2774 H         1 <0>         0.1412
     50 H14         9.2089   -3.9446    0.7440 H         1 <0>         0.4277
     51 H15        10.1549   -4.5197    2.8753 H         1 <0>         0.1389
     52 H16         9.0225   -3.3626    3.6135 H         1 <0>         0.1342
     53 H17         8.2423   -5.8093    1.9633 H         1 <0>         0.0930
     54 H18         8.1352   -5.6742    3.7357 H         1 <0>         0.1224
     55 H19         6.4547   -6.4396    0.8483 H         1 <0>         0.1215
     56 H20         4.7062   -8.1686    0.7389 H         1 <0>         0.1341
     57 H21         2.8726   -6.5250    4.2319 H         1 <0>         0.1318
     58 H22         4.6301   -4.8048    4.3398 H         1 <0>         0.1258
     59 H23         2.1694   -8.4899    4.4121 H         1 <0>         0.0679
     60 H24         1.1781   -7.4221    3.3895 H         1 <0>         0.0678
     61 H25         0.2466   -9.4029    2.2243 H         1 <0>         0.0858
     62 H26         1.2379  -10.4706    3.2468 H         1 <0>         0.0860
     63 H27         0.0978   -9.5944    5.2670 H         1 <0>         0.0564
     64 H28        -0.8935   -8.5267    4.2445 H         1 <0>         0.0563
     65 H29        -1.9244  -10.7397    6.0317 H         1 <0>         0.0752
     66 H30        -2.9158   -9.6720    5.0092 H         1 <0>         0.0752
     67 H31        -2.1290  -12.3638    3.0019 H         1 <0>         0.1437
     68 H32        -3.6485  -14.2638    2.4909 H         1 <0>         0.1368
     69 H33        -5.6092  -14.6501    3.9703 H         1 <0>         0.1380
     70 H34        -5.9856  -13.1494    5.8858 H         1 <0>         0.1605
     71 H35         9.8668   -2.6307    1.4867 H         1 <0>         0.4352
@<TRIPOS>BOND
     1    1   10 ar
     2    1    2 ar
     3    1   39 1
     4    2    3 ar
     5    2   40 1
     6    3    4 ar
     7    3   41 1
     8    4    9 ar
     9    4    5 ar
    10    5    6 ar
    11    5   42 1
    12    6    7 ar
    13    6   11 1
    14    7    8 ar
    15    7   43 1
    16    8    9 ar
    17    8   44 1
    18    9   10 ar
    19   10   45 1
    20   11   12 1
    21   11   46 1
    22   11   47 1
    23   12   13 1
    24   13   14 1
    25   13   19 1
    26   13   15 1
    27   15   16 1
    28   15   48 1
    29   15   49 1
    30   16   17 1
    31   16   50 1
    32   16   71 1
    33   17   18 1
    34   17   51 1
    35   17   52 1
    36   18   19 1
    37   18   53 1
    38   18   54 1
    39   19   20 1
    40   19   21 1
    41   21   26 ar
    42   21   22 ar
    43   22   23 ar
    44   22   55 1
    45   23   24 ar
    46   23   56 1
    47   24   25 ar
    48   24   27 1
    49   25   26 ar
    50   25   57 1
    51   26   58 1
    52   27   28 1
    53   28   29 1
    54   28   59 1
    55   28   60 1
    56   29   30 1
    57   29   61 1
    58   29   62 1
    59   30   31 1
    60   30   63 1
    61   30   64 1
    62   31   32 1
    63   32   33 1
    64   32   65 1
    65   32   66 1
    66   33   38 ar
    67   33   34 ar
    68   34   35 ar
    69   34   67 1
    70   35   36 ar
    71   35   68 1
    72   36   37 ar
    73   36   69 1
    74   37   38 ar
    75   37   70 1
@<TRIPOS>MOLECULE
CHEMBL46022
   96    98     0     0     0
SMALL
USER_CHARGES

@<TRIPOS>ATOM
      1 C1          0.1427    1.9376    0.9592 C.3       1 <0>        -0.1605
      2 C2          0.4661    0.4741    0.6516 C.3       1 <0>        -0.1162
      3 C3          0.4056    0.2453   -0.8600 C.3       1 <0>        -0.1305
      4 C4          0.7760   -1.2062   -1.1713 C.3       1 <0>        -0.1573
      5 C5          0.8581   -1.3977   -2.6871 C.3       1 <0>         0.0701
      6 H1          1.5415   -0.6612   -3.1099 H         1 <0>         0.1094
      7 C6          1.3631   -2.7845   -2.9916 C.2       1 <0>         0.5026
      8 O1          0.8525   -3.4345   -3.8791 O.2       1 <0>        -0.4607
      9 N1          2.3821   -3.3025   -2.2776 N.am      1 <0>        -0.7300
     10 C7          2.9310   -4.6143   -2.6300 C.3       1 <0>         0.1191
     11 H2          2.1814   -5.1871   -3.1759 H         1 <0>         0.1140
     12 C8          4.1706   -4.4293   -3.5076 C.3       1 <0>        -0.1209
     13 C9          3.7606   -3.8096   -4.8451 C.3       1 <0>        -0.0761
     14 C10         2.8711   -4.7912   -5.6107 C.3       1 <0>        -0.1095
     15 C11         2.4612   -4.1714   -6.9482 C.3       1 <0>        -0.1104
     16 C12         3.7127   -3.8664   -7.7739 C.3       1 <0>        -0.1201
     17 C13         4.6021   -2.8849   -7.0082 C.3       1 <0>        -0.1170
     18 C14         5.0121   -3.5046   -5.6708 C.3       1 <0>        -0.1134
     19 C15         3.3170   -5.3651   -1.3540 C.3       1 <0>         0.0667
     20 H3          3.7254   -6.3411   -1.6162 H         1 <0>         0.1075
     21 C16         2.0775   -5.5500   -0.4763 C.3       1 <0>         0.0821
     22 H4          1.6691   -4.5740   -0.2141 H         1 <0>         0.0979
     23 C17         2.4635   -6.3009    0.7997 C.3       1 <0>        -0.1442
     24 C18         1.2533   -6.3766    1.7327 C.3       1 <0>        -0.0919
     25 C19         1.6018   -7.2332    2.9516 C.3       1 <0>        -0.1486
     26 C20         0.8740   -4.9672    2.1915 C.3       1 <0>        -0.1469
     27 O2          1.0947   -6.3009   -1.1921 O.3       1 <0>        -0.5414
     28 O3          4.2998   -4.6142   -0.6382 O.3       1 <0>        -0.5454
     29 N2         -0.4763   -1.2222   -3.2758 N.3       1 <0>        -0.6402
     30 C21        -1.4581   -2.1005   -2.6258 C.3       1 <0>         0.0696
     31 H5         -1.1859   -2.2381   -1.5794 H         1 <0>         0.0737
     32 C22        -2.8470   -1.4647   -2.7121 C.3       1 <0>        -0.0819
     33 C23        -2.8536   -0.1664   -1.9470 C.ar      1 <0>        -0.0857
     34 C24        -3.1807   -0.1573   -0.6039 C.ar      1 <0>        -0.1137
     35 C25        -3.1868    1.0336    0.0980 C.ar      1 <0>        -0.1101
     36 C26        -2.8652    2.2153   -0.5431 C.ar      1 <0>        -0.1170
     37 C27        -2.5372    2.2061   -1.8860 C.ar      1 <0>        -0.1119
     38 C28        -2.5270    1.0146   -2.5868 C.ar      1 <0>        -0.1214
     39 C29        -1.4736   -3.4376   -3.3208 C.2       1 <0>         0.5297
     40 O4         -1.2699   -3.5029   -4.5146 O.2       1 <0>        -0.4781
     41 N3         -1.7139   -4.5608   -2.6158 N.am      1 <0>        -0.6127
     42 C30        -1.8678   -4.5186   -1.1529 C.3       1 <0>         0.0745
     43 C31        -3.1579   -5.2584   -0.7809 C.3       1 <0>         0.0487
     44 O5         -3.1460   -6.5560   -1.3809 O.3       1 <0>        -0.3753
     45 C32        -3.1225   -6.5398   -2.8102 C.3       1 <0>         0.0469
     46 C33        -1.8362   -5.8647   -3.2867 C.3       1 <0>         0.0926
     47 H6          0.9163    2.5776    0.5348 H         1 <0>         0.0514
     48 H7         -0.8222    2.1959    0.5231 H         1 <0>         0.0636
     49 H8          0.1038    2.0818    2.0390 H         1 <0>         0.0520
     50 H9          1.4665    0.2389    1.0149 H         1 <0>         0.0580
     51 H10        -0.2608   -0.1703    1.1460 H         1 <0>         0.0581
     52 H11        -0.6038    0.4475   -1.2180 H         1 <0>         0.0760
     53 H12         1.1082    0.9142   -1.3571 H         1 <0>         0.0631
     54 H13         1.7418   -1.4389   -0.7229 H         1 <0>         0.0688
     55 H14         0.0156   -1.8710   -0.7618 H         1 <0>         0.0722
     56 H15         2.7521   -2.8068   -1.5304 H         1 <0>         0.3855
     57 H16         4.8777   -3.7707   -3.0035 H         1 <0>         0.0663
     58 H17         4.6385   -5.3978   -3.6842 H         1 <0>         0.0668
     59 H18         3.2107   -2.8860   -4.6642 H         1 <0>         0.0673
     60 H19         3.4210   -5.7147   -5.7916 H         1 <0>         0.0462
     61 H20         1.9796   -5.0084   -5.0225 H         1 <0>         0.0801
     62 H21         1.8275   -4.8707   -7.4936 H         1 <0>         0.0541
     63 H22         1.9113   -3.2478   -6.7673 H         1 <0>         0.0635
     64 H23         4.2626   -4.7900   -7.9548 H         1 <0>         0.0565
     65 H24         3.4206   -3.4249   -8.7267 H         1 <0>         0.0563
     66 H25         5.4937   -2.6676   -7.5965 H         1 <0>         0.0567
     67 H26         4.0522   -1.9613   -6.8273 H         1 <0>         0.0582
     68 H27         5.6458   -2.8053   -5.1253 H         1 <0>         0.0551
     69 H28         5.5620   -4.4282   -5.8517 H         1 <0>         0.0579
     70 H29         2.7885   -7.3093    0.5436 H         1 <0>         0.0641
     71 H30         3.2756   -5.7734    1.3001 H         1 <0>         0.0767
     72 H31         0.4130   -6.8245    1.2022 H         1 <0>         0.0771
     73 H32         2.4421   -6.7853    3.4821 H         1 <0>         0.0525
     74 H33         0.7397   -7.2872    3.6163 H         1 <0>         0.0543
     75 H34         1.8721   -8.2373    2.6247 H         1 <0>         0.0530
     76 H35         1.7143   -4.5193    2.7220 H         1 <0>         0.0521
     77 H36         0.6256   -4.3569    1.3231 H         1 <0>         0.0510
     78 H37         0.0118   -5.0211    2.8562 H         1 <0>         0.0541
     79 H38         1.3901   -7.1825   -1.4580 H         1 <0>         0.3720
     80 H39         4.0044   -3.7326   -0.3723 H         1 <0>         0.3676
     81 H40        -0.7678   -0.2573   -3.2296 H         1 <0>         0.3557
     82 H41        -3.0944   -1.2724   -3.7561 H         1 <0>         0.0907
     83 H42        -3.5845   -2.1431   -2.2830 H         1 <0>         0.0815
     84 H43        -3.4320   -1.0806   -0.1030 H         1 <0>         0.1188
     85 H44        -3.4430    1.0408    1.1471 H         1 <0>         0.1217
     86 H45        -2.8706    3.1458    0.0051 H         1 <0>         0.1218
     87 H46        -2.2863    3.1294   -2.3869 H         1 <0>         0.1236
     88 H47        -2.2671    1.0069   -3.6350 H         1 <0>         0.1262
     89 H48        -1.0155   -5.0062   -0.6799 H         1 <0>         0.0850
     90 H49        -1.9299   -3.4825   -0.8201 H         1 <0>         0.0787
     91 H50        -3.2204   -5.3588    0.3026 H         1 <0>         0.1001
     92 H51        -4.0178   -4.6966   -1.1455 H         1 <0>         0.0507
     93 H52        -3.1596   -7.5621   -3.1865 H         1 <0>         0.1025
     94 H53        -3.9823   -5.9827   -3.1821 H         1 <0>         0.0506
     95 H54        -1.8773   -5.7197   -4.3662 H         1 <0>         0.0938
     96 H55        -0.9807   -6.4903   -3.0322 H         1 <0>         0.0745
@<TRIPOS>BOND
     1    1    2 1
     2    1   47 1
     3    1   48 1
     4    1   49 1
     5    2    3 1
     6    2   50 1
     7    2   51 1
     8    3    4 1
     9    3   52 1
    10    3   53 1
    11    4    5 1
    12    4   54 1
    13    4   55 1
    14    5    6 1
    15    5    7 1
    16    5   29 1
    17    7    8 2
    18    7    9 am
    19    9   10 1
    20    9   56 1
    21   10   11 1
    22   10   12 1
    23   10   19 1
    24   12   13 1
    25   12   57 1
    26   12   58 1
    27   13   18 1
    28   13   14 1
    29   13   59 1
    30   14   15 1
    31   14   60 1
    32   14   61 1
    33   15   16 1
    34   15   62 1
    35   15   63 1
    36   16   17 1
    37   16   64 1
    38   16   65 1
    39   17   18 1
    40   17   66 1
    41   17   67 1
    42   18   68 1
    43   18   69 1
    44   19   20 1
    45   19   21 1
    46   19   28 1
    47   21   22 1
    48   21   23 1
    49   21   27 1
    50   23   24 1
    51   23   70 1
    52   23   71 1
    53   24   25 1
    54   24   26 1
    55   24   72 1
    56   25   73 1
    57   25   74 1
    58   25   75 1
    59   26   76 1
    60   26   77 1
    61   26   78 1
    62   27   79 1
    63   28   80 1
    64   29   30 1
    65   29   81 1
    66   30   31 1
    67   30   32 1
    68   30   39 1
    69   32   33 1
    70   32   82 1
    71   32   83 1
    72   33   38 ar
    73   33   34 ar
    74   34   35 ar
    75   34   84 1
    76   35   36 ar
    77   35   85 1
    78   36   37 ar
    79   36   86 1
    80   37   38 ar
    81   37   87 1
    82   38   88 1
    83   39   40 2
    84   39   41 am
    85   41   46 1
    86   41   42 1
    87   42   43 1
    88   42   89 1
    89   42   90 1
    90   43   44 1
    91   43   91 1
    92   43   92 1
    93   44   45 1
    94   45   46 1
    95   45   93 1
    96   45   94 1
    97   46   95 1
    98   46   96 1
@<TRIPOS>MOLECULE
CHEMBL46022__1
   97    99     0     0     0
SMALL
USER_CHARGES

@<TRIPOS>ATOM
      1 C1         -1.3568    0.6975    1.4812 C.3       1 <0>        -0.1583
      2 C2         -1.0554   -0.7674    1.1587 C.3       1 <0>        -0.1230
      3 C3          0.1529   -1.2310    1.9748 C.3       1 <0>        -0.1332
      4 C4          0.5304   -2.6554    1.5629 C.3       1 <0>        -0.1376
      5 C5          1.6530   -3.1674    2.4676 C.3       1 <0>        -0.0057
      6 H1          1.3261   -3.1333    3.5069 H         1 <0>         0.1718
      7 C6          1.9913   -4.5875    2.0937 C.2       1 <0>         0.5066
      8 O1          3.1121   -4.8667    1.7241 O.2       1 <0>        -0.5001
      9 N1          1.0482   -5.5473    2.1701 N.am      1 <0>        -0.6938
     10 C7          1.3771   -6.9279    1.8066 C.3       1 <0>         0.1160
     11 H2          2.0913   -6.9266    0.9832 H         1 <0>         0.1183
     12 C8          1.9912   -7.6405    3.0132 C.3       1 <0>        -0.1272
     13 C9          3.3281   -6.9855    3.3663 C.3       1 <0>        -0.0749
     14 C10         4.3197   -7.2008    2.2212 C.3       1 <0>        -0.1110
     15 C11         5.6565   -6.5458    2.5742 C.3       1 <0>        -0.1105
     16 C12         6.2107   -7.1753    3.8539 C.3       1 <0>        -0.1264
     17 C13         5.2191   -6.9600    4.9990 C.3       1 <0>        -0.1161
     18 C14         3.8822   -7.6150    4.6459 C.3       1 <0>        -0.1199
     19 C15         0.1038   -7.6591    1.3761 C.3       1 <0>         0.0647
     20 H3          0.3485   -8.6862    1.1057 H         1 <0>         0.1207
     21 C16        -0.5103   -6.9465    0.1695 C.3       1 <0>         0.0775
     22 H4         -0.7550   -5.9193    0.4400 H         1 <0>         0.0973
     23 C17        -1.7835   -7.6776   -0.2609 C.3       1 <0>        -0.1471
     24 C18        -2.4646   -6.8962   -1.3862 C.3       1 <0>        -0.0934
     25 C19        -3.6678   -7.6885   -1.9015 C.3       1 <0>        -0.1515
     26 C20        -2.9362   -5.5416   -0.8536 C.3       1 <0>        -0.1482
     27 O2          0.4260   -6.9447   -0.9100 O.3       1 <0>        -0.5513
     28 O3         -0.8325   -7.6608    2.4557 O.3       1 <0>        -0.5368
     29 N2          2.8416   -2.3205    2.3001 N.4       1 <0>        -0.4743
     30 C21         3.8343   -2.6612    3.3279 C.3       1 <0>        -0.0008
     31 H5          4.0256   -3.7340    3.3069 H         1 <0>         0.1776
     32 C22         5.1355   -1.9057    3.0504 C.3       1 <0>        -0.1096
     33 C23         5.7648   -2.4358    1.7879 C.ar      1 <0>        -0.1210
     34 C24         6.6554   -3.4912    1.8500 C.ar      1 <0>        -0.0932
     35 C25         7.2326   -3.9776    0.6919 C.ar      1 <0>        -0.0982
     36 C26         6.9189   -3.4088   -0.5283 C.ar      1 <0>        -0.0984
     37 C27         6.0276   -2.3540   -0.5905 C.ar      1 <0>        -0.1033
     38 C28         5.4471   -1.8705    0.5671 C.ar      1 <0>        -0.1353
     39 C29         3.3067   -2.2714    4.6846 C.2       1 <0>         0.5095
     40 O4          2.2495   -1.6845    4.7785 O.2       1 <0>        -0.5248
     41 N3          4.0096   -2.5750    5.7938 N.am      1 <0>        -0.5830
     42 C30         5.3489   -3.1774    5.7005 C.3       1 <0>         0.0356
     43 C31         6.3063   -2.3662    6.5810 C.3       1 <0>         0.0451
     44 O5          5.7530   -2.2489    7.8940 O.3       1 <0>        -0.3662
     45 C32         4.5100   -1.5444    7.9445 C.3       1 <0>         0.0447
     46 C33         3.4630   -2.3083    7.1337 C.3       1 <0>         0.0729
     47 H6         -0.4629    1.2980    1.3126 H         1 <0>         0.0551
     48 H7         -2.1605    1.0535    0.8366 H         1 <0>         0.0630
     49 H8         -1.6618    0.7847    2.5240 H         1 <0>         0.0586
     50 H9         -1.9208   -1.3804    1.4106 H         1 <0>         0.0715
     51 H10        -0.8361   -0.8678    0.0958 H         1 <0>         0.0678
     52 H11         0.9946   -0.5639    1.7888 H         1 <0>         0.0597
     53 H12        -0.0968   -1.2138    3.0356 H         1 <0>         0.0882
     54 H13        -0.3397   -3.3045    1.6607 H         1 <0>         0.1145
     55 H14         0.8697   -2.6562    0.5270 H         1 <0>         0.0976
     56 H15         0.1517   -5.3240    2.4657 H         1 <0>         0.4001
     57 H16         1.3136   -7.5646    3.8636 H         1 <0>         0.0735
     58 H17         2.1539   -8.6907    2.7709 H         1 <0>         0.0807
     59 H18         3.1793   -5.9170    3.5219 H         1 <0>         0.0584
     60 H19         4.4685   -8.2694    2.0655 H         1 <0>         0.0534
     61 H20         3.9249   -6.7524    1.3095 H         1 <0>         0.0785
     62 H21         6.3630   -6.6993    1.7584 H         1 <0>         0.0584
     63 H22         5.5077   -5.4773    2.7299 H         1 <0>         0.0578
     64 H23         6.3595   -8.2439    3.6982 H         1 <0>         0.0639
     65 H24         7.1631   -6.7087    4.1054 H         1 <0>         0.0598
     66 H25         5.6139   -7.4085    5.9107 H         1 <0>         0.0635
     67 H26         5.0703   -5.8915    5.1547 H         1 <0>         0.0497
     68 H27         3.1758   -7.4616    5.4617 H         1 <0>         0.0570
     69 H28         4.0310   -8.6835    4.4903 H         1 <0>         0.0654
     70 H29        -1.5270   -8.6759   -0.6154 H         1 <0>         0.0693
     71 H30        -2.4618   -7.7569    0.5886 H         1 <0>         0.0816
     72 H31        -1.7568   -6.7401   -2.2003 H         1 <0>         0.0758
     73 H32        -4.3757   -7.8446   -1.0874 H         1 <0>         0.0553
     74 H33        -4.1531   -7.1318   -2.7032 H         1 <0>         0.0573
     75 H34        -3.3319   -8.6535   -2.2809 H         1 <0>         0.0554
     76 H35        -3.6440   -5.6977   -0.0396 H         1 <0>         0.0549
     77 H36        -2.0790   -4.9772   -0.4865 H         1 <0>         0.0477
     78 H37        -3.4214   -4.9849   -1.6553 H         1 <0>         0.0573
     79 H38         0.6894   -7.8276   -1.2036 H         1 <0>         0.3803
     80 H39        -1.0959   -6.7779    2.7493 H         1 <0>         0.3673
     81 H40         3.2382   -2.4747    1.3852 H         1 <0>         0.4363
     82 H41         4.9207   -0.8437    2.9311 H         1 <0>         0.1065
     83 H42         5.8222   -2.0459    3.8852 H         1 <0>         0.1331
     84 H43         6.9005   -3.9356    2.8033 H         1 <0>         0.1255
     85 H44         7.9289   -4.8017    0.7405 H         1 <0>         0.1307
     86 H45         7.3704   -3.7883   -1.4331 H         1 <0>         0.1305
     87 H46         5.7827   -1.9094   -1.5438 H         1 <0>         0.1302
     88 H47         4.7479   -1.0488    0.5181 H         1 <0>         0.1174
     89 H48         5.3128   -4.2089    6.0510 H         1 <0>         0.1006
     90 H49         5.6915   -3.1525    4.6660 H         1 <0>         0.1071
     91 H50         7.2692   -2.8741    6.6358 H         1 <0>         0.1187
     92 H51         6.4416   -1.3730    6.1528 H         1 <0>         0.0622
     93 H52         4.1806   -1.4610    8.9802 H         1 <0>         0.1193
     94 H53         4.6387   -0.5482    7.5212 H         1 <0>         0.0620
     95 H54         2.5572   -1.7081    7.0479 H         1 <0>         0.1118
     96 H55         3.2337   -3.2508    7.6309 H         1 <0>         0.0921
     97 H56         2.5795   -1.3507    2.3939 H         1 <0>         0.4336
@<TRIPOS>BOND
     1    1    2 1
     2    1   47 1
     3    1   48 1
     4    1   49 1
     5    2    3 1
     6    2   50 1
     7    2   51 1
     8    3    4 1
     9    3   52 1
    10    3   53 1
    11    4    5 1
    12    4   54 1
    13    4   55 1
    14    5    6 1
    15    5    7 1
    16    5   29 1
    17    7    8 2
    18    7    9 am
    19    9   10 1
    20    9   56 1
    21   10   11 1
    22   10   12 1
    23   10   19 1
    24   12   13 1
    25   12   57 1
    26   12   58 1
    27   13   18 1
    28   13   14 1
    29   13   59 1
    30   14   15 1
    31   14   60 1
    32   14   61 1
    33   15   16 1
    34   15   62 1
    35   15   63 1
    36   16   17 1
    37   16   64 1
    38   16   65 1
    39   17   18 1
    40   17   66 1
    41   17   67 1
    42   18   68 1
    43   18   69 1
    44   19   20 1
    45   19   21 1
    46   19   28 1
    47   21   22 1
    48   21   23 1
    49   21   27 1
    50   23   24 1
    51   23   70 1
    52   23   71 1
    53   24   25 1
    54   24   26 1
    55   24   72 1
    56   25   73 1
    57   25   74 1
    58   25   75 1
    59   26   76 1
    60   26   77 1
    61   26   78 1
    62   27   79 1
    63   28   80 1
    64   29   30 1
    65   29   81 1
    66   29   97 1
    67   30   31 1
    68   30   32 1
    69   30   39 1
    70   32   33 1
    71   32   82 1
    72   32   83 1
    73   33   38 ar
    74   33   34 ar
    75   34   35 ar
    76   34   84 1
    77   35   36 ar
    78   35   85 1
    79   36   37 ar
    80   36   86 1
    81   37   38 ar
    82   37   87 1
    83   38   88 1
    84   39   40 2
    85   39   41 am
    86   41   46 1
    87   41   42 1
    88   42   43 1
    89   42   89 1
    90   42   90 1
    91   43   44 1
    92   43   91 1
    93   43   92 1
    94   44   45 1
    95   45   46 1
    96   45   93 1
    97   45   94 1
    98   46   95 1
    99   46   96 1
@<TRIPOS>MOLECULE
CHEMBL331466
   40    41     0     0     0
SMALL
USER_CHARGES

@<TRIPOS>ATOM
      1 C1         -0.0187    1.5258    0.0104 C.3       1 <0>        -0.1649
      2 C2          0.0021   -0.0041    0.0020 C.3       1 <0>         0.1518
      3 H1         -1.0205   -0.3814    0.0098 H         1 <0>         0.0776
      4 C3          0.7074   -0.4901   -1.2379 C.2       1 <0>         0.5264
      5 O1          1.7039   -1.1744   -1.1398 O.2       1 <0>        -0.5227
      6 N1          0.2309   -0.1642   -2.4557 N.am      1 <0>        -0.5944
      7 C4         -0.9612    0.6622   -2.7190 C.3       1 <0>         0.0993
      8 C5         -1.4323    0.2395   -4.1329 C.3       1 <0>        -0.1332
      9 C6         -0.0792    0.0101   -4.8565 C.3       1 <0>        -0.1045
     10 C7          0.8176   -0.5687   -3.7417 C.3       1 <0>         0.0662
     11 H2          0.8397   -1.6561   -3.8134 H         1 <0>         0.0618
     12 C8          2.2140   -0.0156   -3.8646 C.2       1 <0>         0.4968
     13 O2          2.9386   -0.3858   -4.7726 O.co2     1 <0>        -0.7111
     14 O3          2.6192    0.8020   -3.0561 O.co2     1 <0>        -0.6742
     15 N2          0.7106   -0.4894    1.1889 N.pl3     1 <0>        -1.1397
     16 P1         -0.1306   -0.8983    2.5360 P.3       1 <0>         2.2839
     17 O4          0.8502   -1.3742    3.6309 O.2       1 <0>        -1.1024
     18 O5         -0.9150    0.3311    3.0463 O.3       1 <0>        -1.0875
     19 O6         -1.1609   -2.0848    2.1859 O.3       1 <0>        -0.6617
     20 C9         -0.5735   -3.3015    2.0388 C.ar      1 <0>         0.1375
     21 C10        -0.1169   -3.7066    0.7930 C.ar      1 <0>        -0.1494
     22 C11         0.4802   -4.9436    0.6463 C.ar      1 <0>        -0.1008
     23 C12         0.6226   -5.7780    1.7396 C.ar      1 <0>        -0.1481
     24 C13         0.1679   -5.3767    2.9822 C.ar      1 <0>        -0.1078
     25 C14        -0.4244   -4.1381    3.1354 C.ar      1 <0>        -0.1260
     26 H3          1.0039    1.9031    0.0027 H         1 <0>         0.0607
     27 H4         -0.5459    1.8868   -0.8726 H         1 <0>         0.0578
     28 H5         -0.5289    1.8773    0.9072 H         1 <0>         0.0797
     29 H6         -1.7373    0.4540   -1.9825 H         1 <0>         0.0695
     30 H7         -0.6995    1.7202   -2.7069 H         1 <0>         0.0666
     31 H8         -2.0144   -0.6812   -4.0917 H         1 <0>         0.0693
     32 H9         -2.0003    1.0379   -4.6104 H         1 <0>         0.0750
     33 H10        -0.1941   -0.7041   -5.6719 H         1 <0>         0.0709
     34 H11         0.3271    0.9530   -5.2227 H         1 <0>         0.0694
     35 H12         1.6773   -0.5688    1.1779 H         1 <0>         0.4009
     36 H13        -0.2285   -3.0556   -0.0614 H         1 <0>         0.1216
     37 H14         0.8359   -5.2595   -0.3234 H         1 <0>         0.1207
     38 H15         1.0894   -6.7448    1.6228 H         1 <0>         0.1165
     39 H16         0.2799   -6.0304    3.8346 H         1 <0>         0.1203
     40 H17        -0.7753   -3.8233    4.1071 H         1 <0>         0.1283
@<TRIPOS>BOND
     1    1    2 1
     2    1   26 1
     3    1   27 1
     4    1   28 1
     5    2    3 1
     6    2    4 1
     7    2   15 1
     8    4    5 2
     9    4    6 am
    10    6   10 1
    11    6    7 1
    12    7    8 1
    13    7   29 1
    14    7   30 1
    15    8    9 1
    16    8   31 1
    17    8   32 1
    18    9   10 1
    19    9   33 1
    20    9   34 1
    21   10   11 1
    22   10   12 1
    23   12   13 2
    24   12   14 1
    25   15   16 1
    26   15   35 1
    27   16   17 2
    28   16   18 1
    29   16   19 1
    30   19   20 1
    31   20   25 ar
    32   20   21 ar
    33   21   22 ar
    34   21   36 1
    35   22   23 ar
    36   22   37 1
    37   23   24 ar
    38   23   38 1
    39   24   25 ar
    40   24   39 1
    41   25   40 1
@<TRIPOS>MOLECULE
CHEMBL331466__1
   40    41     0     0     0
SMALL
USER_CHARGES

@<TRIPOS>ATOM
      1 C1         -0.0187    1.5258    0.0104 C.3       1 <0>        -0.1649
      2 C2          0.0021   -0.0041    0.0020 C.3       1 <0>         0.1518
      3 H1         -1.0205   -0.3814    0.0098 H         1 <0>         0.0776
      4 C3          0.7074   -0.4901   -1.2379 C.2       1 <0>         0.5264
      5 O1          1.7039   -1.1744   -1.1398 O.2       1 <0>        -0.5227
      6 N1          0.2309   -0.1642   -2.4557 N.am      1 <0>        -0.5944
      7 C4         -0.9612    0.6622   -2.7190 C.3       1 <0>         0.0993
      8 C5         -1.4323    0.2395   -4.1329 C.3       1 <0>        -0.1332
      9 C6         -0.0792    0.0101   -4.8565 C.3       1 <0>        -0.1045
     10 C7          0.8176   -0.5687   -3.7417 C.3       1 <0>         0.0662
     11 H2          0.8397   -1.6561   -3.8134 H         1 <0>         0.0618
     12 C8          2.2140   -0.0156   -3.8646 C.2       1 <0>         0.4968
     13 O2          2.9386   -0.3858   -4.7726 O.co2     1 <0>        -0.7111
     14 O3          2.6192    0.8020   -3.0561 O.co2     1 <0>        -0.6742
     15 N2          0.7106   -0.4894    1.1889 N.pl3     1 <0>        -1.1397
     16 P1         -0.1306   -0.8983    2.5360 P.3       1 <0>         2.2839
     17 O4          0.8502   -1.3742    3.6309 O.2       1 <0>        -1.1024
     18 O5         -0.9150    0.3311    3.0463 O.3       1 <0>        -1.0875
     19 O6         -1.1609   -2.0848    2.1859 O.3       1 <0>        -0.6617
     20 C9         -0.5735   -3.3015    2.0388 C.ar      1 <0>         0.1375
     21 C10        -0.1169   -3.7066    0.7930 C.ar      1 <0>        -0.1494
     22 C11         0.4802   -4.9436    0.6463 C.ar      1 <0>        -0.1008
     23 C12         0.6226   -5.7780    1.7396 C.ar      1 <0>        -0.1481
     24 C13         0.1679   -5.3767    2.9822 C.ar      1 <0>        -0.1078
     25 C14        -0.4244   -4.1381    3.1354 C.ar      1 <0>        -0.1260
     26 H3          1.0039    1.9031    0.0027 H         1 <0>         0.0607
     27 H4         -0.5459    1.8868   -0.8726 H         1 <0>         0.0578
     28 H5         -0.5289    1.8773    0.9072 H         1 <0>         0.0797
     29 H6         -1.7373    0.4540   -1.9825 H         1 <0>         0.0695
     30 H7         -0.6995    1.7202   -2.7069 H         1 <0>         0.0666
     31 H8         -2.0144   -0.6812   -4.0917 H         1 <0>         0.0693
     32 H9         -2.0003    1.0379   -4.6104 H         1 <0>         0.0750
     33 H10        -0.1941   -0.7041   -5.6719 H         1 <0>         0.0709
     34 H11         0.3271    0.9530   -5.2227 H         1 <0>         0.0694
     35 H12         1.6773   -0.5688    1.1779 H         1 <0>         0.4009
     36 H13        -0.2285   -3.0556   -0.0614 H         1 <0>         0.1216
     37 H14         0.8359   -5.2595   -0.3234 H         1 <0>         0.1207
     38 H15         1.0894   -6.7448    1.6228 H         1 <0>         0.1165
     39 H16         0.2799   -6.0304    3.8346 H         1 <0>         0.1203
     40 H17        -0.7753   -3.8233    4.1071 H         1 <0>         0.1283
@<TRIPOS>BOND
     1    1    2 1
     2    1   26 1
     3    1   27 1
     4    1   28 1
     5    2    3 1
     6    2    4 1
     7    2   15 1
     8    4    5 2
     9    4    6 am
    10    6   10 1
    11    6    7 1
    12    7    8 1
    13    7   29 1
    14    7   30 1
    15    8    9 1
    16    8   31 1
    17    8   32 1
    18    9   10 1
    19    9   33 1
    20    9   34 1
    21   10   11 1
    22   10   12 1
    23   12   13 2
    24   12   14 1
    25   15   16 1
    26   15   35 1
    27   16   17 2
    28   16   18 1
    29   16   19 1
    30   19   20 1
    31   20   25 ar
    32   20   21 ar
    33   21   22 ar
    34   21   36 1
    35   22   23 ar
    36   22   37 1
    37   23   24 ar
    38   23   38 1
    39   24   25 ar
    40   24   39 1
    41   25   40 1
@<TRIPOS>MOLECULE
CHEMBL308854
   93    93     0     0     0
SMALL
USER_CHARGES

@<TRIPOS>ATOM
      1 C1         -1.7274    2.1555    4.6852 C.3       1 <0>        -0.1539
      2 C2         -1.6163    0.6324    4.5927 C.3       1 <0>         0.0816
      3 O1         -2.8433    0.0946    4.0953 O.3       1 <0>        -0.3644
      4 C3         -2.9116   -1.2425    3.9532 C.2       1 <0>         0.6507
      5 O2         -1.9555   -1.9339    4.2436 O.2       1 <0>        -0.5581
      6 N1         -4.0404   -1.8140    3.4888 N.am      1 <0>        -0.6927
      7 C4         -4.1147   -3.2690    3.3343 C.3       1 <0>         0.1472
      8 C5         -3.5291   -3.6683    1.9783 C.3       1 <0>        -0.1254
      9 C6         -2.0364   -3.3339    1.9490 C.3       1 <0>        -0.0906
     10 C7         -1.3004   -4.1952    2.9772 C.3       1 <0>        -0.1411
     11 C8         -1.4777   -3.6170    0.5531 C.3       1 <0>        -0.1481
     12 C9         -5.5540   -3.7092    3.4092 C.2       1 <0>         0.5187
     13 O3         -6.4313   -2.8885    3.5754 O.2       1 <0>        -0.5303
     14 N2         -5.8662   -5.0150    3.2915 N.am      1 <0>        -0.7025
     15 C10        -7.2513   -5.4563    3.4737 C.3       1 <0>         0.1267
     16 C11        -7.5507   -5.5929    4.9678 C.3       1 <0>        -0.1225
     17 C12        -6.4981   -6.4924    5.6188 C.3       1 <0>        -0.0939
     18 C13        -6.6686   -6.4593    7.1389 C.3       1 <0>        -0.1465
     19 C14        -6.6726   -7.9272    5.1171 C.3       1 <0>        -0.1857
     20 C15        -7.4468   -6.7892    2.7982 C.2       1 <0>         0.5127
     21 O4         -6.4994   -7.3641    2.3055 O.2       1 <0>        -0.4899
     22 N3         -8.6745   -7.3423    2.7417 N.am      1 <0>        -0.7241
     23 C16        -8.8499   -8.6792    2.1689 C.3       1 <0>         0.1193
     24 H1         -7.9478   -9.2676    2.3366 H         1 <0>         0.1113
     25 C17       -10.0404   -9.3688    2.8383 C.3       1 <0>        -0.1197
     26 C18        -9.7204   -9.6208    4.3131 C.3       1 <0>        -0.0866
     27 C19        -8.5858  -10.6414    4.4217 C.3       1 <0>        -0.1156
     28 C20        -8.2659  -10.8935    5.8965 C.3       1 <0>        -0.1208
     29 C21        -9.5098  -11.4367    6.6026 C.3       1 <0>        -0.1205
     30 C22       -10.6444  -10.4160    6.4940 C.3       1 <0>        -0.1191
     31 C23       -10.9643  -10.1640    5.0192 C.3       1 <0>        -0.1143
     32 C24        -9.1089   -8.5600    0.6656 C.3       1 <0>         0.0618
     33 H2         -9.2394   -9.5547    0.2394 H         1 <0>         0.1043
     34 C25        -7.9184   -7.8704   -0.0038 C.3       1 <0>         0.0846
     35 H3         -7.7879   -6.8757    0.4224 H         1 <0>         0.0977
     36 C26        -8.1774   -7.7512   -1.5070 C.3       1 <0>        -0.1455
     37 C27        -7.0322   -6.9763   -2.1620 C.3       1 <0>        -0.0911
     38 C28        -7.2340   -6.9528   -3.6784 C.3       1 <0>        -0.1486
     39 C29        -7.0152   -5.5428   -1.6275 C.3       1 <0>        -0.1456
     40 O5         -6.7358   -8.6418    0.2160 O.3       1 <0>        -0.5245
     41 O6        -10.2916   -7.7886    0.4458 O.3       1 <0>        -0.5482
     42 H4         -0.7915    2.5657    5.0647 H         1 <0>         0.0825
     43 H5         -1.9293    2.5659    3.6958 H         1 <0>         0.0667
     44 H6         -2.5406    2.4202    5.3611 H         1 <0>         0.0668
     45 H7         -0.8032    0.3678    3.9168 H         1 <0>         0.0687
     46 H8         -1.4145    0.2220    5.5821 H         1 <0>         0.0686
     47 H9         -4.8036   -1.2621    3.2570 H         1 <0>         0.4159
     48 H10        -3.5461   -3.7485    4.1310 H         1 <0>         0.1232
     49 H11        -3.6646   -4.7390    1.8252 H         1 <0>         0.0825
     50 H12        -4.0398   -3.1205    1.1864 H         1 <0>         0.0732
     51 H13        -1.8953   -2.2803    2.1900 H         1 <0>         0.0751
     52 H14        -0.2370   -3.9570    2.9563 H         1 <0>         0.0507
     53 H15        -1.6985   -3.9936    3.9717 H         1 <0>         0.0708
     54 H16        -1.4415   -5.2489    2.7362 H         1 <0>         0.0443
     55 H17        -2.0020   -3.0033   -0.1795 H         1 <0>         0.0504
     56 H18        -0.4142   -3.3787    0.5322 H         1 <0>         0.0549
     57 H19        -1.6187   -4.6706    0.3121 H         1 <0>         0.0547
     58 H20        -5.1739   -5.6627    3.0863 H         1 <0>         0.4144
     59 H21        -7.9270   -4.7231    3.0332 H         1 <0>         0.1100
     60 H22        -7.5263   -4.6083    5.4348 H         1 <0>         0.0803
     61 H23        -8.5385   -6.0340    5.1016 H         1 <0>         0.0772
     62 H24        -5.5023   -6.1345    5.3570 H         1 <0>         0.0701
     63 H25        -7.6643   -6.8172    7.4007 H         1 <0>         0.0535
     64 H26        -5.9186   -7.1001    7.6026 H         1 <0>         0.0552
     65 H27        -6.5442   -5.4371    7.4963 H         1 <0>         0.0523
     66 H28        -6.3471   -7.9912    4.0788 H         1 <0>         0.0846
     67 H29        -6.0724   -8.6013    5.7282 H         1 <0>         0.0516
     68 H30        -7.7226   -8.2113    5.1869 H         1 <0>         0.0630
     69 H31        -9.4420   -6.8553    3.0803 H         1 <0>         0.3997
     70 H32       -10.9204   -8.7303    2.7614 H         1 <0>         0.0741
     71 H33       -10.2363  -10.3190    2.3415 H         1 <0>         0.0776
     72 H34        -9.4147   -8.6862    4.7835 H         1 <0>         0.0744
     73 H35        -8.8915  -11.5760    3.9514 H         1 <0>         0.0597
     74 H36        -7.6996  -10.2544    3.9187 H         1 <0>         0.0652
     75 H37        -7.4575  -11.6206    5.9738 H         1 <0>         0.0591
     76 H38        -7.9601   -9.9589    6.3668 H         1 <0>         0.0635
     77 H39        -9.8155  -12.3712    6.1323 H         1 <0>         0.0600
     78 H40        -9.2818  -11.6162    7.6533 H         1 <0>         0.0589
     79 H41       -11.5306  -10.8030    6.9971 H         1 <0>         0.0600
     80 H42       -10.3387   -9.4815    6.9644 H         1 <0>         0.0596
     81 H43       -11.7727   -9.4369    4.9419 H         1 <0>         0.0603
     82 H44       -11.2701  -11.0986    4.5489 H         1 <0>         0.0614
     83 H45        -8.2393   -8.7474   -1.9452 H         1 <0>         0.0618
     84 H46        -9.1158   -7.2222   -1.6732 H         1 <0>         0.0741
     85 H47        -6.0847   -7.4622   -1.9290 H         1 <0>         0.0759
     86 H48        -7.3336   -7.9736   -4.0475 H         1 <0>         0.0526
     87 H49        -8.1371   -6.3907   -3.9162 H         1 <0>         0.0524
     88 H50        -6.3749   -6.4775   -4.1520 H         1 <0>         0.0537
     89 H51        -6.8715   -5.5595   -0.5472 H         1 <0>         0.0531
     90 H52        -6.1993   -4.9907   -2.0941 H         1 <0>         0.0528
     91 H53        -7.9627   -5.0569   -1.8605 H         1 <0>         0.0501
     92 H54        -6.7809   -9.5406   -0.1379 H         1 <0>         0.3614
     93 H55       -10.2464   -6.8899    0.7997 H         1 <0>         0.3704
@<TRIPOS>BOND
     1    1    2 1
     2    1   42 1
     3    1   43 1
     4    1   44 1
     5    2    3 1
     6    2   45 1
     7    2   46 1
     8    3    4 1
     9    4    5 2
    10    4    6 am
    11    6    7 1
    12    6   47 1
    13    7    8 1
    14    7   12 1
    15    7   48 1
    16    8    9 1
    17    8   49 1
    18    8   50 1
    19    9   10 1
    20    9   11 1
    21    9   51 1
    22   10   52 1
    23   10   53 1
    24   10   54 1
    25   11   55 1
    26   11   56 1
    27   11   57 1
    28   12   13 2
    29   12   14 am
    30   14   15 1
    31   14   58 1
    32   15   16 1
    33   15   20 1
    34   15   59 1
    35   16   17 1
    36   16   60 1
    37   16   61 1
    38   17   18 1
    39   17   19 1
    40   17   62 1
    41   18   63 1
    42   18   64 1
    43   18   65 1
    44   19   66 1
    45   19   67 1
    46   19   68 1
    47   20   21 2
    48   20   22 am
    49   22   23 1
    50   22   69 1
    51   23   24 1
    52   23   25 1
    53   23   32 1
    54   25   26 1
    55   25   70 1
    56   25   71 1
    57   26   31 1
    58   26   27 1
    59   26   72 1
    60   27   28 1
    61   27   73 1
    62   27   74 1
    63   28   29 1
    64   28   75 1
    65   28   76 1
    66   29   30 1
    67   29   77 1
    68   29   78 1
    69   30   31 1
    70   30   79 1
    71   30   80 1
    72   31   81 1
    73   31   82 1
    74   32   33 1
    75   32   34 1
    76   32   41 1
    77   34   35 1
    78   34   36 1
    79   34   40 1
    80   36   37 1
    81   36   83 1
    82   36   84 1
    83   37   38 1
    84   37   39 1
    85   37   85 1
    86   38   86 1
    87   38   87 1
    88   38   88 1
    89   39   89 1
    90   39   90 1
    91   39   91 1
    92   40   92 1
    93   41   93 1
@<TRIPOS>MOLECULE
CHEMBL308854__1
   93    93     0     0     0
SMALL
USER_CHARGES

@<TRIPOS>ATOM
      1 C1          1.0010    0.9413    0.7046 C.3       1 <0>        -0.1538
      2 C2          0.8761   -0.5801    0.6024 C.3       1 <0>         0.0816
      3 O1         -0.5056   -0.9442    0.5799 O.3       1 <0>        -0.3645
      4 C3         -0.7904   -2.2572    0.4920 C.2       1 <0>         0.6503
      5 O2          0.1096   -3.0716    0.4358 O.2       1 <0>        -0.5580
      6 N1         -2.0737   -2.6681    0.4662 N.am      1 <0>        -0.6919
      7 C4         -2.3836   -4.0967    0.3705 C.3       1 <0>         0.1466
      8 C5         -2.3707   -4.5241   -1.0985 C.3       1 <0>        -0.1241
      9 C6         -0.9548   -4.3786   -1.6596 C.3       1 <0>        -0.0910
     10 C7         -0.0201   -5.3569   -0.9453 C.3       1 <0>        -0.1413
     11 C8         -0.9660   -4.6861   -3.1583 C.3       1 <0>        -0.1480
     12 C9         -3.7475   -4.3553    0.9570 C.2       1 <0>         0.5158
     13 O3         -4.3968   -3.4367    1.4102 O.2       1 <0>        -0.5192
     14 N2         -4.2458   -5.6074    0.9777 N.am      1 <0>        -0.7029
     15 C10        -5.5717   -5.8587    1.5478 C.3       1 <0>         0.1255
     16 C11        -6.6408   -5.6083    0.4824 C.3       1 <0>        -0.1224
     17 C12        -6.6399   -4.1275    0.0972 C.3       1 <0>        -0.0905
     18 C13        -7.6205   -3.8996   -1.0549 C.3       1 <0>        -0.1488
     19 C14        -7.0650   -3.2867    1.3027 C.3       1 <0>        -0.1420
     20 C15        -5.6544   -7.2888    2.0159 C.2       1 <0>         0.4968
     21 O4         -4.6997   -8.0255    1.8861 O.2       1 <0>        -0.4871
     22 N3         -6.7892   -7.7491    2.5788 N.am      1 <0>        -0.7238
     23 C16        -6.8695   -9.1393    3.0339 C.3       1 <0>         0.1185
     24 H1         -5.9001   -9.4509    3.4228 H         1 <0>         0.1084
     25 C17        -7.9228   -9.2546    4.1376 C.3       1 <0>        -0.1190
     26 C18        -7.4701   -8.4540    5.3603 C.3       1 <0>        -0.0848
     27 C19        -6.2033   -9.0845    5.9422 C.3       1 <0>        -0.1157
     28 C20        -5.7505   -8.2840    7.1649 C.3       1 <0>        -0.1192
     29 C21        -6.8576   -8.2959    8.2209 C.3       1 <0>        -0.1206
     30 C22        -8.1244   -7.6654    7.6390 C.3       1 <0>        -0.1198
     31 C23        -8.5771   -8.4660    6.4163 C.3       1 <0>        -0.1141
     32 C24        -7.2609  -10.0385    1.8595 C.3       1 <0>         0.0620
     33 H2         -7.3207  -11.0729    2.1981 H         1 <0>         0.1047
     34 C25        -6.2076   -9.9233    0.7558 C.3       1 <0>         0.0834
     35 H3         -6.1478   -8.8889    0.4172 H         1 <0>         0.0986
     36 C26        -6.5989  -10.8225   -0.4186 C.3       1 <0>        -0.1456
     37 C27        -5.5899  -10.6452   -1.5550 C.3       1 <0>        -0.0918
     38 C28        -5.8956  -11.6479   -2.6694 C.3       1 <0>        -0.1486
     39 C29        -5.6894   -9.2221   -2.1080 C.3       1 <0>        -0.1456
     40 O5         -4.9367  -10.3318    1.2657 O.3       1 <0>        -0.5237
     41 O6         -8.5318   -9.6300    1.3496 O.3       1 <0>        -0.5476
     42 H4          2.0549    1.2190    0.7217 H         1 <0>         0.0824
     43 H5          0.5172    1.4042   -0.1555 H         1 <0>         0.0666
     44 H6          0.5199    1.2847    1.6204 H         1 <0>         0.0668
     45 H7          1.3572   -0.9235   -0.3134 H         1 <0>         0.0686
     46 H8          1.3599   -1.0430    1.4625 H         1 <0>         0.0686
     47 H9         -2.7921   -2.0179    0.5111 H         1 <0>         0.4159
     48 H10        -1.6368   -4.6682    0.9217 H         1 <0>         0.1226
     49 H11        -2.6876   -5.5641   -1.1772 H         1 <0>         0.0801
     50 H12        -3.0534   -3.8923   -1.6667 H         1 <0>         0.0732
     51 H13        -0.6039   -3.3589   -1.5005 H         1 <0>         0.0755
     52 H14         0.9887   -5.2532   -1.3450 H         1 <0>         0.0506
     53 H15        -0.0121   -5.1378    0.1225 H         1 <0>         0.0714
     54 H16        -0.3709   -6.3765   -1.1044 H         1 <0>         0.0441
     55 H17        -1.6318   -3.9891   -3.6672 H         1 <0>         0.0505
     56 H18         0.0428   -4.5824   -3.5581 H         1 <0>         0.0551
     57 H19        -1.3168   -5.7057   -3.3174 H         1 <0>         0.0539
     58 H20        -3.7265   -6.3421    0.6152 H         1 <0>         0.4131
     59 H21        -5.7368   -5.1898    2.3925 H         1 <0>         0.1175
     60 H22        -6.4247   -6.2129   -0.3984 H         1 <0>         0.0713
     61 H23        -7.6192   -5.8800    0.8785 H         1 <0>         0.0752
     62 H24        -5.6377   -3.8340   -0.2152 H         1 <0>         0.0769
     63 H25        -8.6227   -4.1932   -0.7424 H         1 <0>         0.0530
     64 H26        -7.6199   -2.8447   -1.3293 H         1 <0>         0.0552
     65 H27        -7.3176   -4.4986   -1.9137 H         1 <0>         0.0508
     66 H28        -6.3664   -3.4491    2.1235 H         1 <0>         0.0711
     67 H29        -7.0643   -2.2318    1.0283 H         1 <0>         0.0513
     68 H30        -8.0672   -3.5803    1.6152 H         1 <0>         0.0424
     69 H31        -7.5527   -7.1599    2.6827 H         1 <0>         0.4000
     70 H32        -8.8725   -8.8600    3.7762 H         1 <0>         0.0748
     71 H33        -8.0462  -10.3017    4.4142 H         1 <0>         0.0783
     72 H34        -7.2613   -7.4259    5.0644 H         1 <0>         0.0698
     73 H35        -6.4121  -10.1126    6.2381 H         1 <0>         0.0612
     74 H36        -5.4146   -9.0760    5.1899 H         1 <0>         0.0632
     75 H37        -4.8481   -8.7332    7.5795 H         1 <0>         0.0604
     76 H38        -5.5417   -7.2559    6.8691 H         1 <0>         0.0590
     77 H39        -7.0664   -9.3240    8.5168 H         1 <0>         0.0608
     78 H40        -6.5351   -7.7256    9.0920 H         1 <0>         0.0598
     79 H41        -8.9131   -7.6740    8.3913 H         1 <0>         0.0609
     80 H42        -7.9156   -6.6373    7.3431 H         1 <0>         0.0601
     81 H43        -9.4796   -8.0168    6.0017 H         1 <0>         0.0611
     82 H44        -8.7860   -9.4941    6.7121 H         1 <0>         0.0619
     83 H45        -6.6017  -11.8631   -0.0942 H         1 <0>         0.0617
     84 H46        -7.5937  -10.5488   -0.7700 H         1 <0>         0.0741
     85 H47        -4.5825  -10.8184   -1.1766 H         1 <0>         0.0765
     86 H48        -5.7690  -12.6621   -2.2905 H         1 <0>         0.0524
     87 H49        -6.9226  -11.5123   -3.0086 H         1 <0>         0.0523
     88 H50        -5.2129  -11.4838   -3.5032 H         1 <0>         0.0541
     89 H51        -5.4716   -8.5077   -1.3140 H         1 <0>         0.0525
     90 H52        -4.9706   -9.0958   -2.9175 H         1 <0>         0.0533
     91 H53        -6.6968   -9.0489   -2.4863 H         1 <0>         0.0504
     92 H54        -4.9160  -11.2441    1.5856 H         1 <0>         0.3608
     93 H55        -8.5524   -8.7177    1.0297 H         1 <0>         0.3699
@<TRIPOS>BOND
     1    1    2 1
     2    1   42 1
     3    1   43 1
     4    1   44 1
     5    2    3 1
     6    2   45 1
     7    2   46 1
     8    3    4 1
     9    4    5 2
    10    4    6 am
    11    6    7 1
    12    6   47 1
    13    7    8 1
    14    7   12 1
    15    7   48 1
    16    8    9 1
    17    8   49 1
    18    8   50 1
    19    9   10 1
    20    9   11 1
    21    9   51 1
    22   10   52 1
    23   10   53 1
    24   10   54 1
    25   11   55 1
    26   11   56 1
    27   11   57 1
    28   12   13 2
    29   12   14 am
    30   14   15 1
    31   14   58 1
    32   15   16 1
    33   15   20 1
    34   15   59 1
    35   16   17 1
    36   16   60 1
    37   16   61 1
    38   17   18 1
    39   17   19 1
    40   17   62 1
    41   18   63 1
    42   18   64 1
    43   18   65 1
    44   19   66 1
    45   19   67 1
    46   19   68 1
    47   20   21 2
    48   20   22 am
    49   22   23 1
    50   22   69 1
    51   23   24 1
    52   23   25 1
    53   23   32 1
    54   25   26 1
    55   25   70 1
    56   25   71 1
    57   26   31 1
    58   26   27 1
    59   26   72 1
    60   27   28 1
    61   27   73 1
    62   27   74 1
    63   28   29 1
    64   28   75 1
    65   28   76 1
    66   29   30 1
    67   29   77 1
    68   29   78 1
    69   30   31 1
    70   30   79 1
    71   30   80 1
    72   31   81 1
    73   31   82 1
    74   32   33 1
    75   32   34 1
    76   32   41 1
    77   34   35 1
    78   34   36 1
    79   34   40 1
    80   36   37 1
    81   36   83 1
    82   36   84 1
    83   37   38 1
    84   37   39 1
    85   37   85 1
    86   38   86 1
    87   38   87 1
    88   38   88 1
    89   39   89 1
    90   39   90 1
    91   39   91 1
    92   40   92 1
    93   41   93 1
@<TRIPOS>MOLECULE
CHEMBL308854__2
   93    93     0     0     0
SMALL
USER_CHARGES

@<TRIPOS>ATOM
      1 C1          3.2438    0.4326   -3.3052 C.3       1 <0>        -0.1535
      2 C2          3.1812   -0.8408   -2.4594 C.3       1 <0>         0.0800
      3 O1          1.8564   -1.0107   -1.9514 O.3       1 <0>        -0.3629
      4 C3          1.6310   -2.0919   -1.1815 C.2       1 <0>         0.6524
      5 O2          2.5344   -2.8701   -0.9473 O.2       1 <0>        -0.5660
      6 N1          0.4033   -2.3112   -0.6705 N.am      1 <0>        -0.6955
      7 C4          0.1292   -3.5422    0.0749 C.3       1 <0>         0.1468
      8 C5          0.4686   -3.3306    1.5517 C.3       1 <0>        -0.1234
      9 C6          0.3194   -4.6544    2.3041 C.3       1 <0>        -0.1060
     10 C7          1.3817   -5.6412    1.8158 C.3       1 <0>        -0.1537
     11 C8          0.4997   -4.4117    3.8039 C.3       1 <0>        -0.1445
     12 C9         -1.3293   -3.8968   -0.0595 C.2       1 <0>         0.5200
     13 O3         -2.1392   -3.0375   -0.3365 O.2       1 <0>        -0.5282
     14 N2         -1.7337   -5.1687    0.1280 N.am      1 <0>        -0.7039
     15 C10        -3.1282   -5.5389   -0.1260 C.3       1 <0>         0.1262
     16 C11        -3.9840   -5.1647    1.0858 C.3       1 <0>        -0.1222
     17 C12        -3.3947   -5.8056    2.3439 C.3       1 <0>        -0.0969
     18 C13        -4.1141   -5.2599    3.5790 C.3       1 <0>        -0.1455
     19 C14        -3.5770   -7.3232    2.2764 C.3       1 <0>        -0.1896
     20 C15        -3.2180   -7.0241   -0.3650 C.2       1 <0>         0.5127
     21 O4         -2.2407   -7.7243   -0.2053 O.2       1 <0>        -0.4898
     22 N3         -4.3845   -7.5744   -0.7563 N.am      1 <0>        -0.7238
     23 C16        -4.4992   -9.0285   -0.8926 C.3       1 <0>         0.1189
     24 H1         -3.8196   -9.5138   -0.1921 H         1 <0>         0.1120
     25 C17        -5.9362   -9.4574   -0.5894 C.3       1 <0>        -0.1196
     26 C18        -6.2480   -9.1898    0.8844 C.3       1 <0>        -0.0868
     27 C19        -5.3843  -10.0983    1.7616 C.3       1 <0>        -0.1159
     28 C20        -5.6962   -9.8307    3.2354 C.3       1 <0>        -0.1208
     29 C21        -7.1747  -10.1180    3.5041 C.3       1 <0>        -0.1204
     30 C22        -8.0384   -9.2095    2.6270 C.3       1 <0>        -0.1190
     31 C23        -7.7266   -9.4771    1.1532 C.3       1 <0>        -0.1142
     32 C24        -4.1358   -9.4370   -2.3216 C.3       1 <0>         0.0621
     33 H2         -4.2212  -10.5189   -2.4230 H         1 <0>         0.1046
     34 C25        -2.6988   -9.0082   -2.6249 C.3       1 <0>         0.0842
     35 H3         -2.6135   -7.9263   -2.5235 H         1 <0>         0.0969
     36 C26        -2.3354   -9.4167   -4.0538 C.3       1 <0>        -0.1451
     37 C27        -0.9437   -8.8829   -4.3986 C.3       1 <0>        -0.0919
     38 C28        -0.5150   -9.4213   -5.7651 C.3       1 <0>        -0.1483
     39 C29        -0.9801   -7.3539   -4.4414 C.3       1 <0>        -0.1460
     40 O5         -1.8079   -9.6444   -1.7064 O.3       1 <0>        -0.5248
     41 O6         -5.0267   -8.8008   -3.2401 O.3       1 <0>        -0.5480
     42 H4          4.2543    0.5621   -3.6928 H         1 <0>         0.0831
     43 H5          2.5435    0.3514   -4.1366 H         1 <0>         0.0670
     44 H6          2.9781    1.2915   -2.6890 H         1 <0>         0.0673
     45 H7          3.4469   -1.6997   -3.0757 H         1 <0>         0.0689
     46 H8          3.8815   -0.7596   -1.6281 H         1 <0>         0.0694
     47 H9         -0.2989   -1.6539   -0.7962 H         1 <0>         0.4170
     48 H10         0.7385   -4.3526   -0.3254 H         1 <0>         0.1183
     49 H11         1.4953   -2.9755    1.6413 H         1 <0>         0.0869
     50 H12        -0.2099   -2.5917    1.9781 H         1 <0>         0.0752
     51 H13        -0.6723   -5.0674    2.1196 H         1 <0>         0.0768
     52 H14         1.2328   -6.6054    2.3018 H         1 <0>         0.0606
     53 H15         1.2967   -5.7617    0.7358 H         1 <0>         0.0552
     54 H16         2.3726   -5.2594    2.0618 H         1 <0>         0.0615
     55 H17        -0.2572   -3.7087    4.1518 H         1 <0>         0.0548
     56 H18         0.3934   -5.3548    4.3400 H         1 <0>         0.0589
     57 H19         1.4914   -3.9987    3.9885 H         1 <0>         0.0573
     58 H20        -1.1014   -5.8389    0.4312 H         1 <0>         0.4151
     59 H21        -3.4910   -5.0068   -1.0054 H         1 <0>         0.1076
     60 H22        -3.9958   -4.0809    1.2015 H         1 <0>         0.0836
     61 H23        -5.0018   -5.5253    0.9370 H         1 <0>         0.0761
     62 H24        -2.3325   -5.5697    2.4083 H         1 <0>         0.0736
     63 H25        -5.1763   -5.4958    3.5146 H         1 <0>         0.0529
     64 H26        -3.6943   -5.7165    4.4753 H         1 <0>         0.0547
     65 H27        -3.9843   -4.1788    3.6271 H         1 <0>         0.0525
     66 H28        -2.9027   -7.7371    1.5266 H         1 <0>         0.0871
     67 H29        -3.3507   -7.7599    3.2491 H         1 <0>         0.0512
     68 H30        -4.6073   -7.5537    2.0054 H         1 <0>         0.0631
     69 H31        -5.1480   -7.0076   -0.9477 H         1 <0>         0.3998
     70 H32        -6.6246   -8.8896   -1.2153 H         1 <0>         0.0740
     71 H33        -6.0494  -10.5213   -0.7973 H         1 <0>         0.0775
     72 H34        -6.0322   -8.1472    1.1180 H         1 <0>         0.0748
     73 H35        -5.6002  -11.1409    1.5280 H         1 <0>         0.0595
     74 H36        -4.3310   -9.8937    1.5701 H         1 <0>         0.0656
     75 H37        -5.0808  -10.4780    3.8603 H         1 <0>         0.0589
     76 H38        -5.4803   -8.7882    3.4690 H         1 <0>         0.0640
     77 H39        -7.3906  -11.1606    3.2706 H         1 <0>         0.0599
     78 H40        -7.3969   -9.9274    4.5541 H         1 <0>         0.0588
     79 H41        -9.0918   -9.4141    2.8184 H         1 <0>         0.0599
     80 H42        -7.8226   -8.1669    2.8605 H         1 <0>         0.0596
     81 H43        -8.3419   -8.8298    0.5283 H         1 <0>         0.0602
     82 H44        -7.9425  -10.5196    0.9196 H         1 <0>         0.0613
     83 H45        -2.3374  -10.5039   -4.1325 H         1 <0>         0.0623
     84 H46        -3.0662   -9.0009   -4.7475 H         1 <0>         0.0745
     85 H47        -0.2316   -9.2083   -3.6402 H         1 <0>         0.0764
     86 H48        -0.4047  -10.5043   -5.7106 H         1 <0>         0.0527
     87 H49        -1.2718   -9.1701   -6.5083 H         1 <0>         0.0524
     88 H50         0.4369   -8.9730   -6.0499 H         1 <0>         0.0542
     89 H51        -1.2854   -6.9703   -3.4679 H         1 <0>         0.0515
     90 H52         0.0115   -6.9736   -4.6870 H         1 <0>         0.0531
     91 H53        -1.6921   -7.0285   -5.1998 H         1 <0>         0.0508
     92 H54        -1.8308  -10.6105   -1.7415 H         1 <0>         0.3617
     93 H55        -5.0038   -7.8347   -3.2049 H         1 <0>         0.3703
@<TRIPOS>BOND
     1    1    2 1
     2    1   42 1
     3    1   43 1
     4    1   44 1
     5    2    3 1
     6    2   45 1
     7    2   46 1
     8    3    4 1
     9    4    5 2
    10    4    6 am
    11    6    7 1
    12    6   47 1
    13    7    8 1
    14    7   12 1
    15    7   48 1
    16    8    9 1
    17    8   49 1
    18    8   50 1
    19    9   10 1
    20    9   11 1
    21    9   51 1
    22   10   52 1
    23   10   53 1
    24   10   54 1
    25   11   55 1
    26   11   56 1
    27   11   57 1
    28   12   13 2
    29   12   14 am
    30   14   15 1
    31   14   58 1
    32   15   16 1
    33   15   20 1
    34   15   59 1
    35   16   17 1
    36   16   60 1
    37   16   61 1
    38   17   18 1
    39   17   19 1
    40   17   62 1
    41   18   63 1
    42   18   64 1
    43   18   65 1
    44   19   66 1
    45   19   67 1
    46   19   68 1
    47   20   21 2
    48   20   22 am
    49   22   23 1
    50   22   69 1
    51   23   24 1
    52   23   25 1
    53   23   32 1
    54   25   26 1
    55   25   70 1
    56   25   71 1
    57   26   31 1
    58   26   27 1
    59   26   72 1
    60   27   28 1
    61   27   73 1
    62   27   74 1
    63   28   29 1
    64   28   75 1
    65   28   76 1
    66   29   30 1
    67   29   77 1
    68   29   78 1
    69   30   31 1
    70   30   79 1
    71   30   80 1
    72   31   81 1
    73   31   82 1
    74   32   33 1
    75   32   34 1
    76   32   41 1
    77   34   35 1
    78   34   36 1
    79   34   40 1
    80   36   37 1
    81   36   83 1
    82   36   84 1
    83   37   38 1
    84   37   39 1
    85   37   85 1
    86   38   86 1
    87   38   87 1
    88   38   88 1
    89   39   89 1
    90   39   90 1
    91   39   91 1
    92   40   92 1
    93   41   93 1
@<TRIPOS>MOLECULE
CHEMBL308854__3
   93    93     0     0     0
SMALL
USER_CHARGES

@<TRIPOS>ATOM
      1 C1          2.2802   -0.6917    1.1648 C.3       1 <0>        -0.1535
      2 C2          1.8336   -2.1540    1.1085 C.3       1 <0>         0.0802
      3 O1          0.4284   -2.2135    0.8554 O.3       1 <0>        -0.3629
      4 C3         -0.1270   -3.4374    0.7754 C.2       1 <0>         0.6522
      5 O2          0.5626   -4.4279    0.9166 O.2       1 <0>        -0.5669
      6 N1         -1.4477   -3.5639    0.5388 N.am      1 <0>        -0.6946
      7 C4         -2.0328   -4.8926    0.3425 C.3       1 <0>         0.1470
      8 C5         -2.4364   -5.4774    1.6975 C.3       1 <0>        -0.1238
      9 C6         -2.9085   -6.9205    1.5099 C.3       1 <0>        -0.1048
     10 C7         -1.7304   -7.7886    1.0633 C.3       1 <0>        -0.1514
     11 C8         -3.4610   -7.4526    2.8338 C.3       1 <0>        -0.1428
     12 C9         -3.2500   -4.7803   -0.5388 C.2       1 <0>         0.5189
     13 O3         -3.8029   -3.7095   -0.6758 O.2       1 <0>        -0.5202
     14 N2         -3.7243   -5.8698   -1.1749 N.am      1 <0>        -0.7047
     15 C10        -4.8376   -5.7405   -2.1183 C.3       1 <0>         0.1224
     16 C11        -4.2964   -5.3527   -3.4958 C.3       1 <0>        -0.1234
     17 C12        -3.6646   -3.9612   -3.4222 C.3       1 <0>        -0.0908
     18 C13        -3.0138   -3.6249   -4.7655 C.3       1 <0>        -0.1484
     19 C14        -4.7460   -2.9261   -3.1061 C.3       1 <0>        -0.1442
     20 C15        -5.5675   -7.0553   -2.2172 C.2       1 <0>         0.4970
     21 O4         -5.1944   -8.0066   -1.5640 O.2       1 <0>        -0.4857
     22 N3         -6.6348   -7.1739   -3.0316 N.am      1 <0>        -0.7238
     23 C16        -7.3443   -8.4521   -3.1278 C.3       1 <0>         0.1189
     24 H1         -7.3407   -8.9437   -2.1550 H         1 <0>         0.1087
     25 C17        -8.7882   -8.2020   -3.5676 C.3       1 <0>        -0.1191
     26 C18        -9.5224   -7.4122   -2.4822 C.3       1 <0>        -0.0846
     27 C19        -9.6268   -8.2630   -1.2148 C.3       1 <0>        -0.1156
     28 C20       -10.3610   -7.4732   -0.1294 C.3       1 <0>        -0.1189
     29 C21       -11.7651   -7.1155   -0.6206 C.3       1 <0>        -0.1206
     30 C22       -11.6607   -6.2647   -1.8879 C.3       1 <0>        -0.1198
     31 C23       -10.9265   -7.0544   -2.9734 C.3       1 <0>        -0.1141
     32 C24        -6.6463   -9.3468   -4.1540 C.3       1 <0>         0.0620
     33 H2         -7.1742  -10.2978   -4.2256 H         1 <0>         0.1045
     34 C25        -5.2023   -9.5969   -3.7143 C.3       1 <0>         0.0834
     35 H3         -4.6745   -8.6459   -3.6427 H         1 <0>         0.0986
     36 C26        -4.5044  -10.4916   -4.7405 C.3       1 <0>        -0.1457
     37 C27        -3.0343  -10.6624   -4.3522 C.3       1 <0>        -0.0917
     38 C28        -2.3734  -11.6748   -5.2898 C.3       1 <0>        -0.1485
     39 C29        -2.3166   -9.3161   -4.4677 C.3       1 <0>        -0.1460
     40 O5         -5.1976  -10.2414   -2.4389 O.3       1 <0>        -0.5231
     41 O6         -6.6510   -8.7022   -5.4294 O.3       1 <0>        -0.5477
     42 H4          3.3520   -0.6463    1.3578 H         1 <0>         0.0830
     43 H5          2.0617   -0.2081    0.2127 H         1 <0>         0.0670
     44 H6          1.7450   -0.1789    1.9641 H         1 <0>         0.0672
     45 H7          2.3687   -2.6668    0.3092 H         1 <0>         0.0687
     46 H8          2.0521   -2.6376    2.0606 H         1 <0>         0.0692
     47 H9         -2.0110   -2.7752    0.4984 H         1 <0>         0.4172
     48 H10        -1.3001   -5.5458   -0.1314 H         1 <0>         0.1172
     49 H11        -1.5792   -5.4601    2.3705 H         1 <0>         0.0857
     50 H12        -3.2448   -4.8831    2.1234 H         1 <0>         0.0739
     51 H13        -3.6906   -6.9513    0.7513 H         1 <0>         0.0814
     52 H14        -2.0799   -8.8022    0.8667 H         1 <0>         0.0617
     53 H15        -1.2957   -7.3716    0.1548 H         1 <0>         0.0518
     54 H16        -0.9764   -7.8104    1.8500 H         1 <0>         0.0597
     55 H17        -4.3003   -6.8342    3.1520 H         1 <0>         0.0531
     56 H18        -3.7973   -8.4807    2.7001 H         1 <0>         0.0595
     57 H19        -2.6789   -7.4219    3.5924 H         1 <0>         0.0554
     58 H20        -3.3285   -6.7395   -1.0080 H         1 <0>         0.4141
     59 H21        -5.5237   -4.9696   -1.7672 H         1 <0>         0.1193
     60 H22        -3.5443   -6.0772   -3.8078 H         1 <0>         0.0713
     61 H23        -5.1132   -5.3431   -4.2176 H         1 <0>         0.0767
     62 H24        -2.9076   -3.9469   -2.6381 H         1 <0>         0.0725
     63 H25        -3.7707   -3.6392   -5.5497 H         1 <0>         0.0542
     64 H26        -2.5636   -2.6336   -4.7131 H         1 <0>         0.0554
     65 H27        -2.2434   -4.3624   -4.9907 H         1 <0>         0.0511
     66 H28        -5.2096   -3.1656   -2.1492 H         1 <0>         0.0725
     67 H29        -4.2959   -1.9347   -3.0537 H         1 <0>         0.0517
     68 H30        -5.5030   -2.9404   -3.8903 H         1 <0>         0.0443
     69 H31        -6.9332   -6.4130   -3.5540 H         1 <0>         0.3999
     70 H32        -8.7915   -7.6321   -4.4967 H         1 <0>         0.0747
     71 H33        -9.2905   -9.1564   -3.7250 H         1 <0>         0.0781
     72 H34        -8.9707   -6.4983   -2.2618 H         1 <0>         0.0699
     73 H35       -10.1785   -9.1769   -1.4352 H         1 <0>         0.0610
     74 H36        -8.6265   -8.5179   -0.8649 H         1 <0>         0.0634
     75 H37       -10.4354   -8.0794    0.7735 H         1 <0>         0.0602
     76 H38        -9.8093   -6.5593    0.0909 H         1 <0>         0.0591
     77 H39       -12.3168   -8.0293   -0.8410 H         1 <0>         0.0608
     78 H40       -12.2882   -6.5528    0.1527 H         1 <0>         0.0597
     79 H41       -12.6610   -6.0098   -2.2379 H         1 <0>         0.0608
     80 H42       -11.1090   -5.3508   -1.6676 H         1 <0>         0.0602
     81 H43       -10.8521   -6.4483   -3.8762 H         1 <0>         0.0610
     82 H44       -11.4782   -7.9683   -3.1937 H         1 <0>         0.0618
     83 H45        -4.9901  -11.4672   -4.7620 H         1 <0>         0.0617
     84 H46        -4.5686  -10.0319   -5.7267 H         1 <0>         0.0741
     85 H47        -2.9692  -11.0219   -3.3252 H         1 <0>         0.0766
     86 H48        -2.9369  -12.6077   -5.2726 H         1 <0>         0.0526
     87 H49        -2.3613  -11.2763   -6.3043 H         1 <0>         0.0523
     88 H50        -1.3513  -11.8615   -4.9606 H         1 <0>         0.0539
     89 H51        -2.7875   -8.5949   -3.7997 H         1 <0>         0.0521
     90 H52        -1.2694   -9.4378   -4.1910 H         1 <0>         0.0536
     91 H53        -2.3817   -8.9566   -5.4946 H         1 <0>         0.0507
     92 H54        -5.6511  -11.0954   -2.4282 H         1 <0>         0.3605
     93 H55        -6.1975   -7.8482   -5.4401 H         1 <0>         0.3699
@<TRIPOS>BOND
     1    1    2 1
     2    1   42 1
     3    1   43 1
     4    1   44 1
     5    2    3 1
     6    2   45 1
     7    2   46 1
     8    3    4 1
     9    4    5 2
    10    4    6 am
    11    6    7 1
    12    6   47 1
    13    7    8 1
    14    7   12 1
    15    7   48 1
    16    8    9 1
    17    8   49 1
    18    8   50 1
    19    9   10 1
    20    9   11 1
    21    9   51 1
    22   10   52 1
    23   10   53 1
    24   10   54 1
    25   11   55 1
    26   11   56 1
    27   11   57 1
    28   12   13 2
    29   12   14 am
    30   14   15 1
    31   14   58 1
    32   15   16 1
    33   15   20 1
    34   15   59 1
    35   16   17 1
    36   16   60 1
    37   16   61 1
    38   17   18 1
    39   17   19 1
    40   17   62 1
    41   18   63 1
    42   18   64 1
    43   18   65 1
    44   19   66 1
    45   19   67 1
    46   19   68 1
    47   20   21 2
    48   20   22 am
    49   22   23 1
    50   22   69 1
    51   23   24 1
    52   23   25 1
    53   23   32 1
    54   25   26 1
    55   25   70 1
    56   25   71 1
    57   26   31 1
    58   26   27 1
    59   26   72 1
    60   27   28 1
    61   27   73 1
    62   27   74 1
    63   28   29 1
    64   28   75 1
    65   28   76 1
    66   29   30 1
    67   29   77 1
    68   29   78 1
    69   30   31 1
    70   30   79 1
    71   30   80 1
    72   31   81 1
    73   31   82 1
    74   32   33 1
    75   32   34 1
    76   32   41 1
    77   34   35 1
    78   34   36 1
    79   34   40 1
    80   36   37 1
    81   36   83 1
    82   36   84 1
    83   37   38 1
    84   37   39 1
    85   37   85 1
    86   38   86 1
    87   38   87 1
    88   38   88 1
    89   39   89 1
    90   39   90 1
    91   39   91 1
    92   40   92 1
    93   41   93 1
@<TRIPOS>MOLECULE
CHEMBL442105
   91    92     0     0     0
SMALL
USER_CHARGES

@<TRIPOS>ATOM
      1 C1         -0.3392    0.5468   -2.2099 C.3       1 <0>        -0.1534
      2 C2         -0.4314   -0.9700   -2.0326 C.3       1 <0>        -0.1170
      3 C3         -1.8929   -1.3710   -1.8224 C.3       1 <0>        -0.1048
      4 H1         -2.3069   -0.8095   -0.9848 H         1 <0>         0.0767
      5 C4         -2.6937   -1.0621   -3.0890 C.3       1 <0>        -0.1508
      6 C5         -1.9726   -2.8689   -1.5213 C.3       1 <0>         0.1209
      7 N1         -3.3562   -3.2301   -1.2028 N.am      1 <0>        -0.7340
      8 C6         -3.6673   -4.5066   -0.9023 C.2       1 <0>         0.5232
      9 O1         -2.8159   -5.3683   -0.9611 O.2       1 <0>        -0.5403
     10 C7         -5.0733   -4.8632   -0.4934 C.3       1 <0>        -0.0978
     11 H2         -5.7736   -4.4996   -1.2453 H         1 <0>         0.1026
     12 C8         -5.1990   -6.3832   -0.3720 C.3       1 <0>        -0.1297
     13 C9         -6.6513   -6.7516   -0.0617 C.3       1 <0>         0.0988
     14 C10        -6.7615   -8.2640    0.1416 C.3       1 <0>         0.1174
     15 H3         -6.0589   -8.5791    0.9131 H         1 <0>         0.0950
     16 C11        -6.4336   -8.9802   -1.1701 C.3       1 <0>        -0.1336
     17 C12        -6.4216  -10.4922   -0.9365 C.3       1 <0>        -0.0798
     18 C13        -5.2807  -10.8519    0.0173 C.3       1 <0>        -0.1034
     19 C14        -5.2687  -12.3639    0.2509 C.3       1 <0>        -0.1113
     20 C15        -5.0646  -13.0845   -1.0832 C.3       1 <0>        -0.1180
     21 C16        -6.2055  -12.7248   -2.0370 C.3       1 <0>        -0.1160
     22 C17        -6.2175  -11.2128   -2.2706 C.3       1 <0>        -0.1141
     23 N2         -8.1253   -8.6030    0.5553 N.am      1 <0>        -0.7049
     24 C18        -8.3554   -9.7274    1.2619 C.2       1 <0>         0.5230
     25 O2         -7.4333  -10.4586    1.5552 O.2       1 <0>        -0.5156
     26 C19        -9.7583  -10.0762    1.6875 C.3       1 <0>        -0.1723
     27 C20       -10.3138   -8.9612    2.5759 C.3       1 <0>         0.0475
     28 C21       -10.4832   -7.7058    1.7596 C.2       1 <0>         0.4726
     29 O3        -11.2800   -7.6815    0.8371 O.co2     1 <0>        -0.6848
     30 O4         -9.8236   -6.7145    2.0218 O.co2     1 <0>        -0.6626
     31 O5         -9.4057   -8.7116    3.6507 O.3       1 <0>        -0.5452
     32 C22        -9.7423  -11.3713    2.4578 C.2       1 <0>         0.3666
     33 O6         -8.8010  -11.6422    3.1640 O.2       1 <0>        -0.3842
     34 C23       -10.9011  -12.3284    2.3467 C.3       1 <0>         0.0125
     35 O7        -10.7086  -13.4166    3.2528 O.3       1 <0>        -0.2932
     36 C24       -11.6707  -14.3761    3.2779 C.ar      1 <0>         0.1324
     37 C25       -12.7744  -14.2753    2.4435 C.ar      1 <0>        -0.2116
     38 C26       -13.7508  -15.2522    2.4706 C.ar      1 <0>        -0.0794
     39 C27       -13.6289  -16.3295    3.3287 C.ar      1 <0>        -0.1640
     40 C28       -12.5301  -16.4320    4.1617 C.ar      1 <0>        -0.0818
     41 C29       -11.5479  -15.4609    4.1340 C.ar      1 <0>        -0.1520
     42 O8         -7.4864   -6.3554   -1.1515 O.3       1 <0>        -0.5457
     43 C30        -5.3918   -4.2157    0.8557 C.3       1 <0>        -0.0915
     44 C31        -4.3132   -4.5969    1.8717 C.3       1 <0>        -0.1514
     45 C32        -5.4268   -2.6945    0.6957 C.3       1 <0>        -0.1633
     46 H4          0.7020    0.8325   -2.3596 H         1 <0>         0.0540
     47 H5         -0.9268    0.8477   -3.0773 H         1 <0>         0.0571
     48 H6         -0.7270    1.0410   -1.3191 H         1 <0>         0.0541
     49 H7         -0.0436   -1.4642   -2.9233 H         1 <0>         0.0648
     50 H8          0.1562   -1.2709   -1.1652 H         1 <0>         0.0645
     51 H9         -3.7349   -1.3477   -2.9392 H         1 <0>         0.0547
     52 H10        -2.6370    0.0051   -3.3035 H         1 <0>         0.0603
     53 H11        -2.2798   -1.6236   -3.9265 H         1 <0>         0.0571
     54 H12        -1.6414   -3.4329   -2.3932 H         1 <0>         0.0658
     55 H13        -1.3311   -3.1034   -0.6718 H         1 <0>         0.0649
     56 H14        -4.0483   -2.5506   -1.2081 H         1 <0>         0.4024
     57 H15        -4.8987   -6.8488   -1.3106 H         1 <0>         0.0751
     58 H16        -4.5545   -6.7380    0.4322 H         1 <0>         0.0838
     59 H17        -6.9703   -6.2388    0.8457 H         1 <0>         0.1171
     60 H18        -7.1882   -8.7339   -1.9170 H         1 <0>         0.0645
     61 H19        -5.4538   -8.6595   -1.5241 H         1 <0>         0.0717
     62 H20        -7.3715  -10.7997   -0.4990 H         1 <0>         0.0772
     63 H21        -4.3308  -10.5443   -0.4201 H         1 <0>         0.0430
     64 H22        -5.4261  -10.3385    0.9678 H         1 <0>         0.0820
     65 H23        -4.4559  -12.6202    0.9304 H         1 <0>         0.0510
     66 H24        -6.2186  -12.6715    0.6884 H         1 <0>         0.0658
     67 H25        -4.1147  -12.7769   -1.5207 H         1 <0>         0.0550
     68 H26        -5.0561  -14.1617   -0.9168 H         1 <0>         0.0527
     69 H27        -6.0601  -13.2382   -2.9875 H         1 <0>         0.0535
     70 H28        -7.1554  -13.0324   -1.5996 H         1 <0>         0.0578
     71 H29        -7.0303  -10.9565   -2.9501 H         1 <0>         0.0548
     72 H30        -5.2676  -10.9052   -2.7080 H         1 <0>         0.0562
     73 H31        -8.8628   -8.0182    0.3207 H         1 <0>         0.4216
     74 H32       -10.3890  -10.1859    0.8052 H         1 <0>         0.1254
     75 H33       -11.2795   -9.2654    2.9795 H         1 <0>         0.1019
     76 H34        -8.5240   -8.4360    3.3647 H         1 <0>         0.3711
     77 H35       -11.8266  -11.8087    2.5945 H         1 <0>         0.0965
     78 H36       -10.9605  -12.7104    1.3276 H         1 <0>         0.0948
     79 H37       -12.8704  -13.4337    1.7735 H         1 <0>         0.1301
     80 H38       -14.6102  -15.1743    1.8212 H         1 <0>         0.1243
     81 H39       -14.3935  -17.0920    3.3487 H         1 <0>         0.1215
     82 H40       -12.4374  -17.2742    4.8313 H         1 <0>         0.1274
     83 H41       -10.6876  -15.5436    4.7816 H         1 <0>         0.1309
     84 H42        -7.2595   -6.7737   -1.9933 H         1 <0>         0.3651
     85 H43        -6.3621   -4.5665    1.2071 H         1 <0>         0.0957
     86 H44        -3.3540   -4.1882    1.5540 H         1 <0>         0.0494
     87 H45        -4.5750   -4.1916    2.8490 H         1 <0>         0.0584
     88 H46        -4.2420   -5.6827    1.9359 H         1 <0>         0.0617
     89 H47        -6.2021   -2.4223   -0.0205 H         1 <0>         0.0602
     90 H48        -5.6437   -2.2327    1.6590 H         1 <0>         0.0619
     91 H49        -4.4596   -2.3448    0.3347 H         1 <0>         0.0592
@<TRIPOS>BOND
     1    1    2 1
     2    1   46 1
     3    1   47 1
     4    1   48 1
     5    2    3 1
     6    2   49 1
     7    2   50 1
     8    3    4 1
     9    3    5 1
    10    3    6 1
    11    5   51 1
    12    5   52 1
    13    5   53 1
    14    6    7 1
    15    6   54 1
    16    6   55 1
    17    7    8 am
    18    7   56 1
    19    8    9 2
    20    8   10 1
    21   10   11 1
    22   10   12 1
    23   10   43 1
    24   12   13 1
    25   12   57 1
    26   12   58 1
    27   13   14 1
    28   13   42 1
    29   13   59 1
    30   14   15 1
    31   14   16 1
    32   14   23 1
    33   16   17 1
    34   16   60 1
    35   16   61 1
    36   17   22 1
    37   17   18 1
    38   17   62 1
    39   18   19 1
    40   18   63 1
    41   18   64 1
    42   19   20 1
    43   19   65 1
    44   19   66 1
    45   20   21 1
    46   20   67 1
    47   20   68 1
    48   21   22 1
    49   21   69 1
    50   21   70 1
    51   22   71 1
    52   22   72 1
    53   23   24 am
    54   23   73 1
    55   24   25 2
    56   24   26 1
    57   26   27 1
    58   26   32 1
    59   26   74 1
    60   27   28 1
    61   27   31 1
    62   27   75 1
    63   28   29 2
    64   28   30 1
    65   31   76 1
    66   32   33 2
    67   32   34 1
    68   34   35 1
    69   34   77 1
    70   34   78 1
    71   35   36 1
    72   36   41 ar
    73   36   37 ar
    74   37   38 ar
    75   37   79 1
    76   38   39 ar
    77   38   80 1
    78   39   40 ar
    79   39   81 1
    80   40   41 ar
    81   40   82 1
    82   41   83 1
    83   42   84 1
    84   43   44 1
    85   43   45 1
    86   43   85 1
    87   44   86 1
    88   44   87 1
    89   44   88 1
    90   45   89 1
    91   45   90 1
    92   45   91 1
@<TRIPOS>MOLECULE
CHEMBL442105__1
   91    92     0     0     0
SMALL
USER_CHARGES

@<TRIPOS>ATOM
      1 C1          0.0593    1.4697   -0.7130 C.3       1 <0>        -0.1536
      2 C2          0.0615   -0.0384   -0.4550 C.3       1 <0>        -0.1174
      3 C3         -1.3693   -0.5730   -0.5433 C.3       1 <0>        -0.1045
      4 H1         -2.0083   -0.0158    0.1418 H         1 <0>         0.0766
      5 C4         -1.8881   -0.4077   -1.9731 C.3       1 <0>        -0.1508
      6 C5         -1.3844   -2.0550   -0.1634 C.3       1 <0>         0.1204
      7 N1         -2.7674   -2.5370   -0.1320 N.am      1 <0>        -0.7330
      8 C6         -3.0262   -3.8221    0.1811 C.2       1 <0>         0.5217
      9 O1         -2.1119   -4.5979    0.3632 O.2       1 <0>        -0.5376
     10 C7         -4.4517   -4.2952    0.3047 C.3       1 <0>        -0.0984
     11 H2         -5.0060   -4.0165   -0.5915 H         1 <0>         0.1024
     12 C8         -4.4721   -5.8167    0.4644 C.3       1 <0>        -0.1315
     13 C9         -5.9195   -6.3121    0.4456 C.3       1 <0>         0.0977
     14 C10        -5.9424   -7.8281    0.6510 C.3       1 <0>         0.1175
     15 H3         -5.4092   -8.0786    1.5681 H         1 <0>         0.0991
     16 C11        -5.2643   -8.5140   -0.5367 C.3       1 <0>        -0.1329
     17 C12        -5.1757  -10.0187   -0.2742 C.3       1 <0>        -0.0811
     18 C13        -4.2548  -10.2745    0.9206 C.3       1 <0>        -0.1036
     19 C14        -4.1662  -11.7792    1.1832 C.3       1 <0>        -0.1126
     20 C15        -3.6026  -12.4805   -0.0544 C.3       1 <0>        -0.1183
     21 C16        -4.5235  -12.2247   -1.2492 C.3       1 <0>        -0.1171
     22 C17        -4.6121  -10.7200   -1.5117 C.3       1 <0>        -0.1134
     23 N2         -7.3302   -8.2863    0.7524 N.am      1 <0>        -0.7196
     24 C18        -7.6172   -9.4258    1.4124 C.2       1 <0>         0.5335
     25 O2         -6.7265  -10.0719    1.9224 O.2       1 <0>        -0.5019
     26 C19        -9.0447   -9.8971    1.5166 C.3       1 <0>        -0.1725
     27 C20        -9.8816   -8.8348    2.2322 C.3       1 <0>         0.0526
     28 C21       -11.3092   -9.3061    2.3364 C.2       1 <0>         0.4684
     29 O3        -11.7989   -9.5301    3.4303 O.co2     1 <0>        -0.6703
     30 O4        -11.9745   -9.4635    1.3269 O.co2     1 <0>        -0.6856
     31 O5         -9.3551   -8.6167    3.5426 O.3       1 <0>        -0.5488
     32 C22        -9.0928  -11.1848    2.2981 C.2       1 <0>         0.3740
     33 O6         -8.2694  -11.4027    3.1541 O.2       1 <0>        -0.3950
     34 C23       -10.1684  -12.2006    2.0112 C.3       1 <0>         0.0102
     35 O7        -10.0029  -13.3266    2.8753 O.3       1 <0>        -0.2954
     36 C24       -10.8977  -14.3412    2.7450 C.ar      1 <0>         0.1363
     37 C25       -11.9107  -14.2572    1.8009 C.ar      1 <0>        -0.2059
     38 C26       -12.8187  -15.2900    1.6700 C.ar      1 <0>        -0.0790
     39 C27       -12.7188  -16.4066    2.4794 C.ar      1 <0>        -0.1662
     40 C28       -11.7104  -16.4925    3.4214 C.ar      1 <0>        -0.0846
     41 C29       -10.7962  -15.4651    3.5519 C.ar      1 <0>        -0.1541
     42 O8         -6.5159   -5.9930   -0.8132 O.3       1 <0>        -0.5557
     43 C30        -5.1005   -3.6452    1.5284 C.3       1 <0>        -0.0884
     44 C31        -4.2366   -3.9078    2.7635 C.3       1 <0>        -0.1536
     45 C32        -5.2204   -2.1369    1.3012 C.3       1 <0>        -0.1660
     46 H4          1.0787    1.8506   -0.6501 H         1 <0>         0.0546
     47 H5         -0.3418    1.6677   -1.7070 H         1 <0>         0.0571
     48 H6         -0.5605    1.9653    0.0343 H         1 <0>         0.0541
     49 H7          0.6813   -0.5339   -1.2022 H         1 <0>         0.0652
     50 H8          0.4627   -0.2363    0.5390 H         1 <0>         0.0649
     51 H9         -2.9075   -0.7886   -2.0361 H         1 <0>         0.0539
     52 H10        -1.8774    0.6481   -2.2438 H         1 <0>         0.0609
     53 H11        -1.2491   -0.9650   -2.6582 H         1 <0>         0.0574
     54 H12        -0.8177   -2.6247   -0.8999 H         1 <0>         0.0668
     55 H13        -0.9327   -2.1825    0.8204 H         1 <0>         0.0657
     56 H14        -3.4969   -1.9313   -0.3364 H         1 <0>         0.4020
     57 H15        -3.9203   -6.2756   -0.3560 H         1 <0>         0.0782
     58 H16        -4.0072   -6.0888    1.4120 H         1 <0>         0.0864
     59 H17        -6.4795   -5.8286    1.2460 H         1 <0>         0.1104
     60 H18        -5.8477   -8.3366   -1.4402 H         1 <0>         0.0643
     61 H19        -4.2611   -8.1081   -0.6665 H         1 <0>         0.0722
     62 H20        -6.1700  -10.4088   -0.0567 H         1 <0>         0.0782
     63 H21        -3.2605   -9.8844    0.7031 H         1 <0>         0.0430
     64 H22        -4.6563   -9.7749    1.8023 H         1 <0>         0.0812
     65 H23        -3.5102  -11.9615    2.0344 H         1 <0>         0.0520
     66 H24        -5.1605  -12.1693    1.4007 H         1 <0>         0.0673
     67 H25        -2.6083  -12.0904   -0.2719 H         1 <0>         0.0549
     68 H26        -3.5395  -13.5525    0.1327 H         1 <0>         0.0540
     69 H27        -4.1220  -12.7243   -2.1308 H         1 <0>         0.0543
     70 H28        -5.5178  -12.6148   -1.0317 H         1 <0>         0.0591
     71 H29        -5.2681  -10.5377   -2.3629 H         1 <0>         0.0545
     72 H30        -3.6178  -10.3299   -1.7292 H         1 <0>         0.0560
     73 H31        -8.0426   -7.7696    0.3444 H         1 <0>         0.4033
     74 H32        -9.4464  -10.0635    0.5171 H         1 <0>         0.1272
     75 H33        -9.8468   -7.9034    1.6670 H         1 <0>         0.1064
     76 H34        -9.3551   -9.4049    4.1027 H         1 <0>         0.3747
     77 H35       -11.1469  -11.7519    2.1825 H         1 <0>         0.1184
     78 H36       -10.0942  -12.5251    0.9732 H         1 <0>         0.0897
     79 H37       -11.9896  -13.3849    1.1689 H         1 <0>         0.1323
     80 H38       -13.6076  -15.2251    0.9352 H         1 <0>         0.1237
     81 H39       -13.4299  -17.2128    2.3758 H         1 <0>         0.1199
     82 H40       -11.6347  -17.3655    4.0526 H         1 <0>         0.1256
     83 H41       -10.0060  -15.5346    4.2848 H         1 <0>         0.1293
     84 H42        -6.0683   -6.3906   -1.5726 H         1 <0>         0.3729
     85 H43        -6.0926   -4.0695    1.6820 H         1 <0>         0.0888
     86 H44        -3.2573   -3.4493    2.6261 H         1 <0>         0.0518
     87 H45        -4.7186   -3.4787    3.6420 H         1 <0>         0.0589
     88 H46        -4.1184   -4.9824    2.9024 H         1 <0>         0.0625
     89 H47        -5.9076   -1.9472    0.4767 H         1 <0>         0.0599
     90 H48        -5.5991   -1.6621    2.2064 H         1 <0>         0.0621
     91 H49        -4.2400   -1.7269    1.0588 H         1 <0>         0.0622
@<TRIPOS>BOND
     1    1    2 1
     2    1   46 1
     3    1   47 1
     4    1   48 1
     5    2    3 1
     6    2   49 1
     7    2   50 1
     8    3    4 1
     9    3    5 1
    10    3    6 1
    11    5   51 1
    12    5   52 1
    13    5   53 1
    14    6    7 1
    15    6   54 1
    16    6   55 1
    17    7    8 am
    18    7   56 1
    19    8    9 2
    20    8   10 1
    21   10   11 1
    22   10   12 1
    23   10   43 1
    24   12   13 1
    25   12   57 1
    26   12   58 1
    27   13   14 1
    28   13   42 1
    29   13   59 1
    30   14   15 1
    31   14   16 1
    32   14   23 1
    33   16   17 1
    34   16   60 1
    35   16   61 1
    36   17   22 1
    37   17   18 1
    38   17   62 1
    39   18   19 1
    40   18   63 1
    41   18   64 1
    42   19   20 1
    43   19   65 1
    44   19   66 1
    45   20   21 1
    46   20   67 1
    47   20   68 1
    48   21   22 1
    49   21   69 1
    50   21   70 1
    51   22   71 1
    52   22   72 1
    53   23   24 am
    54   23   73 1
    55   24   25 2
    56   24   26 1
    57   26   27 1
    58   26   32 1
    59   26   74 1
    60   27   28 1
    61   27   31 1
    62   27   75 1
    63   28   29 2
    64   28   30 1
    65   31   76 1
    66   32   33 2
    67   32   34 1
    68   34   35 1
    69   34   77 1
    70   34   78 1
    71   35   36 1
    72   36   41 ar
    73   36   37 ar
    74   37   38 ar
    75   37   79 1
    76   38   39 ar
    77   38   80 1
    78   39   40 ar
    79   39   81 1
    80   40   41 ar
    81   40   82 1
    82   41   83 1
    83   42   84 1
    84   43   44 1
    85   43   45 1
    86   43   85 1
    87   44   86 1
    88   44   87 1
    89   44   88 1
    90   45   89 1
    91   45   90 1
    92   45   91 1
@<TRIPOS>MOLECULE
CHEMBL442105__2
   91    92     0     0     0
SMALL
USER_CHARGES

@<TRIPOS>ATOM
      1 C1          1.6672   -0.0848   -2.7130 C.3       1 <0>        -0.1535
      2 C2          1.4197   -1.4898   -2.1603 C.3       1 <0>        -0.1175
      3 C3         -0.0811   -1.6969   -1.9468 C.3       1 <0>        -0.1043
      4 H1         -0.4701   -0.9038   -1.3081 H         1 <0>         0.0762
      5 C4         -0.7981   -1.6613   -3.2979 C.3       1 <0>        -0.1510
      6 C5         -0.3190   -3.0526   -1.2788 C.3       1 <0>         0.1203
      7 N1         -1.7426   -3.1998   -0.9660 N.am      1 <0>        -0.7335
      8 C6         -2.1889   -4.3230   -0.3697 C.2       1 <0>         0.5212
      9 O1         -1.4255   -5.2411   -0.1571 O.2       1 <0>        -0.5369
     10 C7         -3.6366   -4.4382    0.0328 C.3       1 <0>        -0.0989
     11 H2         -4.2710   -4.2239   -0.8272 H         1 <0>         0.1028
     12 C8         -3.9159   -5.8575    0.5315 C.3       1 <0>        -0.1316
     13 C9         -5.4082   -6.0073    0.8339 C.3       1 <0>         0.0984
     14 C10        -5.6739   -7.3979    1.4141 C.3       1 <0>         0.1165
     15 H3         -5.0361   -7.5567    2.2837 H         1 <0>         0.0985
     16 C11        -5.3668   -8.4592    0.3557 C.3       1 <0>        -0.1327
     17 C12        -5.5122   -9.8518    0.9727 C.3       1 <0>        -0.0860
     18 C13        -4.4500  -10.0424    2.0573 C.3       1 <0>        -0.1028
     19 C14        -4.5953  -11.4350    2.6743 C.3       1 <0>        -0.1131
     20 C15        -4.4109  -12.4961    1.5876 C.3       1 <0>        -0.1163
     21 C16        -5.4731  -12.3054    0.5030 C.3       1 <0>        -0.1176
     22 C17        -5.3277  -10.9129   -0.1140 C.3       1 <0>        -0.1082
     23 N2         -7.0795   -7.4997    1.8143 N.am      1 <0>        -0.7232
     24 C18        -7.4459   -8.3748    2.7716 C.2       1 <0>         0.5307
     25 O2         -6.6013   -8.9994    3.3776 O.2       1 <0>        -0.4987
     26 C19        -8.9052   -8.5770    3.0890 C.3       1 <0>        -0.1731
     27 C20        -9.6055   -9.2119    1.8859 C.3       1 <0>         0.0554
     28 C21       -11.0862   -9.2961    2.1535 C.2       1 <0>         0.4692
     29 O3        -11.7414   -8.2760    2.2823 O.co2     1 <0>        -0.6856
     30 O4        -11.6289  -10.3844    2.2411 O.co2     1 <0>        -0.6710
     31 O5         -9.0850  -10.5251    1.6702 O.3       1 <0>        -0.5450
     32 C22        -9.0381   -9.4850    4.2844 C.2       1 <0>         0.3689
     33 O6         -8.1570  -10.2671    4.5495 O.2       1 <0>        -0.3899
     34 C23       -10.2706   -9.4169    5.1490 C.3       1 <0>         0.0074
     35 O7        -10.1612  -10.3678    6.2100 O.3       1 <0>        -0.2963
     36 C24       -11.1971  -10.4354    7.0871 C.ar      1 <0>         0.1355
     37 C25       -12.2988   -9.6077    6.9264 C.ar      1 <0>        -0.2048
     38 C26       -13.3507   -9.6787    7.8190 C.ar      1 <0>        -0.0789
     39 C27       -13.3060  -10.5735    8.8722 C.ar      1 <0>        -0.1659
     40 C28       -12.2090  -11.3992    9.0348 C.ar      1 <0>        -0.0852
     41 C29       -11.1572  -11.3364    8.1413 C.ar      1 <0>        -0.1542
     42 O8         -6.1574   -5.8431   -0.3718 O.3       1 <0>        -0.5565
     43 C30        -3.9365   -3.4368    1.1500 C.3       1 <0>        -0.0882
     44 C31        -2.9341   -3.6290    2.2898 C.3       1 <0>        -0.1539
     45 C32        -3.8201   -2.0127    0.6031 C.3       1 <0>        -0.1655
     46 H4          2.7364    0.0627   -2.8651 H         1 <0>         0.0547
     47 H5          1.1459    0.0288   -3.6635 H         1 <0>         0.0573
     48 H6          1.2955    0.6552   -2.0041 H         1 <0>         0.0539
     49 H7          1.7913   -2.2297   -2.8692 H         1 <0>         0.0654
     50 H8          1.9410   -1.6034   -1.2098 H         1 <0>         0.0648
     51 H9         -1.8673   -1.8088   -3.1459 H         1 <0>         0.0538
     52 H10        -0.6287   -0.6954   -3.7739 H         1 <0>         0.0609
     53 H11        -0.4092   -2.4543   -3.9367 H         1 <0>         0.0578
     54 H12        -0.0113   -3.8500   -1.9552 H         1 <0>         0.0671
     55 H13         0.2630   -3.1116   -0.3591 H         1 <0>         0.0656
     56 H14        -2.3640   -2.4889   -1.1881 H         1 <0>         0.4018
     57 H15        -3.6268   -6.5757   -0.2357 H         1 <0>         0.0794
     58 H16        -3.3409   -6.0436    1.4386 H         1 <0>         0.0856
     59 H17        -5.7106   -5.2486    1.5558 H         1 <0>         0.1076
     60 H18        -6.0640   -8.3556   -0.4757 H         1 <0>         0.0644
     61 H19        -4.3473   -8.3269   -0.0064 H         1 <0>         0.0694
     62 H20        -6.5039   -9.9520    1.4138 H         1 <0>         0.0933
     63 H21        -3.4583   -9.9422    1.6162 H         1 <0>         0.0402
     64 H22        -4.5814   -9.2865    2.8315 H         1 <0>         0.0767
     65 H23        -3.8386  -11.5708    3.4469 H         1 <0>         0.0481
     66 H24        -5.5871  -11.5352    3.1154 H         1 <0>         0.0725
     67 H25        -3.4192  -12.3958    1.1465 H         1 <0>         0.0514
     68 H26        -4.5144  -13.4881    2.0271 H         1 <0>         0.0528
     69 H27        -5.3417  -13.0613   -0.2712 H         1 <0>         0.0517
     70 H28        -6.4648  -12.4056    0.9441 H         1 <0>         0.0670
     71 H29        -6.0845  -10.7770   -0.8866 H         1 <0>         0.0550
     72 H30        -4.3360  -10.8126   -0.5551 H         1 <0>         0.0502
     73 H31        -7.7464   -6.9373    1.3903 H         1 <0>         0.4033
     74 H32        -9.3656   -7.6143    3.3110 H         1 <0>         0.1270
     75 H33        -9.4305   -8.6016    0.9999 H         1 <0>         0.1063
     76 H34        -9.2059  -11.1242    2.4196 H         1 <0>         0.3715
     77 H35       -10.3659   -8.4149    5.5674 H         1 <0>         0.0903
     78 H36       -11.1500   -9.6443    4.5465 H         1 <0>         0.1197
     79 H37       -12.3338   -8.9082    6.1043 H         1 <0>         0.1329
     80 H38       -14.2086   -9.0346    7.6943 H         1 <0>         0.1238
     81 H39       -14.1293  -10.6273    9.5691 H         1 <0>         0.1199
     82 H40       -12.1763  -12.0970    9.8584 H         1 <0>         0.1255
     83 H41       -10.3025  -11.9846    8.2662 H         1 <0>         0.1291
     84 H42        -5.9399   -6.4860   -1.0606 H         1 <0>         0.3755
     85 H43        -4.9473   -3.6011    1.5235 H         1 <0>         0.0880
     86 H44        -1.9300   -3.3999    1.9331 H         1 <0>         0.0525
     87 H45        -3.1882   -2.9617    3.1134 H         1 <0>         0.0580
     88 H46        -2.9702   -4.6623    2.6350 H         1 <0>         0.0626
     89 H47        -4.5422   -1.8722   -0.2012 H         1 <0>         0.0603
     90 H48        -4.0226   -1.2991    1.4019 H         1 <0>         0.0618
     91 H49        -2.8127   -1.8521    0.2192 H         1 <0>         0.0622
@<TRIPOS>BOND
     1    1    2 1
     2    1   46 1
     3    1   47 1
     4    1   48 1
     5    2    3 1
     6    2   49 1
     7    2   50 1
     8    3    4 1
     9    3    5 1
    10    3    6 1
    11    5   51 1
    12    5   52 1
    13    5   53 1
    14    6    7 1
    15    6   54 1
    16    6   55 1
    17    7    8 am
    18    7   56 1
    19    8    9 2
    20    8   10 1
    21   10   11 1
    22   10   12 1
    23   10   43 1
    24   12   13 1
    25   12   57 1
    26   12   58 1
    27   13   14 1
    28   13   42 1
    29   13   59 1
    30   14   15 1
    31   14   16 1
    32   14   23 1
    33   16   17 1
    34   16   60 1
    35   16   61 1
    36   17   22 1
    37   17   18 1
    38   17   62 1
    39   18   19 1
    40   18   63 1
    41   18   64 1
    42   19   20 1
    43   19   65 1
    44   19   66 1
    45   20   21 1
    46   20   67 1
    47   20   68 1
    48   21   22 1
    49   21   69 1
    50   21   70 1
    51   22   71 1
    52   22   72 1
    53   23   24 am
    54   23   73 1
    55   24   25 2
    56   24   26 1
    57   26   27 1
    58   26   32 1
    59   26   74 1
    60   27   28 1
    61   27   31 1
    62   27   75 1
    63   28   29 2
    64   28   30 1
    65   31   76 1
    66   32   33 2
    67   32   34 1
    68   34   35 1
    69   34   77 1
    70   34   78 1
    71   35   36 1
    72   36   41 ar
    73   36   37 ar
    74   37   38 ar
    75   37   79 1
    76   38   39 ar
    77   38   80 1
    78   39   40 ar
    79   39   81 1
    80   40   41 ar
    81   40   82 1
    82   41   83 1
    83   42   84 1
    84   43   44 1
    85   43   45 1
    86   43   85 1
    87   44   86 1
    88   44   87 1
    89   44   88 1
    90   45   89 1
    91   45   90 1
    92   45   91 1
@<TRIPOS>MOLECULE
CHEMBL442105__3
   91    92     0     0     0
SMALL
USER_CHARGES

@<TRIPOS>ATOM
      1 C1          0.0593    1.4697   -0.7130 C.3       1 <0>        -0.1533
      2 C2          0.0615   -0.0384   -0.4550 C.3       1 <0>        -0.1172
      3 C3         -1.3693   -0.5730   -0.5433 C.3       1 <0>        -0.1043
      4 H1         -2.0083   -0.0158    0.1418 H         1 <0>         0.0761
      5 C4         -1.8881   -0.4077   -1.9731 C.3       1 <0>        -0.1512
      6 C5         -1.3844   -2.0550   -0.1634 C.3       1 <0>         0.1206
      7 N1         -2.7674   -2.5370   -0.1320 N.am      1 <0>        -0.7337
      8 C6         -3.0262   -3.8221    0.1811 C.2       1 <0>         0.5226
      9 O1         -2.1119   -4.5979    0.3632 O.2       1 <0>        -0.5379
     10 C7         -4.4517   -4.2952    0.3047 C.3       1 <0>        -0.0991
     11 H2         -5.0060   -4.0165   -0.5915 H         1 <0>         0.1042
     12 C8         -4.4721   -5.8167    0.4644 C.3       1 <0>        -0.1308
     13 C9         -5.9195   -6.3121    0.4456 C.3       1 <0>         0.0991
     14 C10        -5.9424   -7.8281    0.6510 C.3       1 <0>         0.1182
     15 H3         -5.4092   -8.0786    1.5681 H         1 <0>         0.0910
     16 C11        -5.2643   -8.5140   -0.5367 C.3       1 <0>        -0.1339
     17 C12        -5.1757  -10.0187   -0.2742 C.3       1 <0>        -0.0759
     18 C13        -4.2548  -10.2745    0.9206 C.3       1 <0>        -0.1008
     19 C14        -4.1662  -11.7792    1.1832 C.3       1 <0>        -0.1127
     20 C15        -3.6026  -12.4805   -0.0544 C.3       1 <0>        -0.1161
     21 C16        -4.5235  -12.2247   -1.2492 C.3       1 <0>        -0.1167
     22 C17        -4.6121  -10.7200   -1.5117 C.3       1 <0>        -0.1143
     23 N2         -7.3302   -8.2863    0.7524 N.am      1 <0>        -0.7039
     24 C18        -7.6172   -9.4258    1.4124 C.2       1 <0>         0.5189
     25 O2         -6.7265  -10.0719    1.9224 O.2       1 <0>        -0.5138
     26 C19        -9.0447   -9.8971    1.5166 C.3       1 <0>        -0.1736
     27 C20        -9.6085  -10.1307    0.1136 C.3       1 <0>         0.0452
     28 C21        -9.5604   -8.8430   -0.6679 C.2       1 <0>         0.4734
     29 O3         -8.8447   -8.7528   -1.6508 O.co2     1 <0>        -0.6581
     30 O4        -10.2372   -7.8915   -0.3171 O.co2     1 <0>        -0.6871
     31 O5         -8.8269  -11.1229   -0.5547 O.3       1 <0>        -0.5481
     32 C22        -9.0928  -11.1848    2.2981 C.2       1 <0>         0.3660
     33 O6         -8.1221  -11.9019    2.3406 O.2       1 <0>        -0.3822
     34 C23       -10.3523  -11.5776    3.0264 C.3       1 <0>         0.0130
     35 O7        -10.1499  -12.8283    3.6874 O.3       1 <0>        -0.2930
     36 C24       -11.1966  -13.3284    4.3955 C.ar      1 <0>         0.1325
     37 C25       -12.3955  -12.6325    4.4483 C.ar      1 <0>        -0.2117
     38 C26       -13.4581  -13.1431    5.1684 C.ar      1 <0>        -0.0795
     39 C27       -13.3273  -14.3465    5.8365 C.ar      1 <0>        -0.1641
     40 C28       -12.1332  -15.0418    5.7859 C.ar      1 <0>        -0.0819
     41 C29       -11.0696  -14.5384    5.0621 C.ar      1 <0>        -0.1521
     42 O8         -6.5159   -5.9930   -0.8132 O.3       1 <0>        -0.5449
     43 C30        -5.1005   -3.6452    1.5284 C.3       1 <0>        -0.0884
     44 C31        -4.2366   -3.9078    2.7635 C.3       1 <0>        -0.1523
     45 C32        -5.2204   -2.1369    1.3012 C.3       1 <0>        -0.1656
     46 H4          1.0787    1.8506   -0.6501 H         1 <0>         0.0541
     47 H5         -0.3418    1.6677   -1.7070 H         1 <0>         0.0573
     48 H6         -0.5605    1.9653    0.0343 H         1 <0>         0.0537
     49 H7          0.6813   -0.5339   -1.2022 H         1 <0>         0.0652
     50 H8          0.4627   -0.2363    0.5390 H         1 <0>         0.0644
     51 H9         -2.9075   -0.7886   -2.0361 H         1 <0>         0.0548
     52 H10        -1.8774    0.6481   -2.2438 H         1 <0>         0.0604
     53 H11        -1.2491   -0.9650   -2.6582 H         1 <0>         0.0577
     54 H12        -0.8177   -2.6247   -0.8999 H         1 <0>         0.0666
     55 H13        -0.9327   -2.1825    0.8204 H         1 <0>         0.0648
     56 H14        -3.4969   -1.9313   -0.3364 H         1 <0>         0.4020
     57 H15        -3.9203   -6.2756   -0.3560 H         1 <0>         0.0785
     58 H16        -4.0072   -6.0888    1.4120 H         1 <0>         0.0829
     59 H17        -6.4795   -5.8286    1.2460 H         1 <0>         0.1023
     60 H18        -5.8477   -8.3366   -1.4402 H         1 <0>         0.0764
     61 H19        -4.2611   -8.1081   -0.6665 H         1 <0>         0.0656
     62 H20        -6.1700  -10.4088   -0.0567 H         1 <0>         0.0800
     63 H21        -3.2605   -9.8844    0.7031 H         1 <0>         0.0398
     64 H22        -4.6563   -9.7749    1.8023 H         1 <0>         0.0768
     65 H23        -3.5102  -11.9615    2.0344 H         1 <0>         0.0465
     66 H24        -5.1605  -12.1693    1.4007 H         1 <0>         0.0725
     67 H25        -2.6083  -12.0904   -0.2719 H         1 <0>         0.0521
     68 H26        -3.5395  -13.5525    0.1327 H         1 <0>         0.0511
     69 H27        -4.1220  -12.7243   -2.1308 H         1 <0>         0.0522
     70 H28        -5.5178  -12.6148   -1.0317 H         1 <0>         0.0622
     71 H29        -5.2681  -10.5377   -2.3629 H         1 <0>         0.0601
     72 H30        -3.6178  -10.3299   -1.7292 H         1 <0>         0.0527
     73 H31        -8.0426   -7.7696    0.3444 H         1 <0>         0.4231
     74 H32        -9.6409   -9.1403    2.0264 H         1 <0>         0.1265
     75 H33       -10.6411  -10.4716    0.1890 H         1 <0>         0.1021
     76 H34        -7.8950  -10.8861   -0.6574 H         1 <0>         0.3714
     77 H35       -10.5994  -10.8132    3.7631 H         1 <0>         0.0940
     78 H36       -11.1704  -11.6722    2.3125 H         1 <0>         0.0965
     79 H37       -12.4980  -11.6921    3.9271 H         1 <0>         0.1302
     80 H38       -14.3917  -12.6018    5.2097 H         1 <0>         0.1243
     81 H39       -14.1590  -14.7440    6.3992 H         1 <0>         0.1214
     82 H40       -12.0333  -15.9814    6.3089 H         1 <0>         0.1273
     83 H41       -10.1386  -15.0840    5.0192 H         1 <0>         0.1308
     84 H42        -6.0683   -6.3906   -1.5726 H         1 <0>         0.3748
     85 H43        -6.0926   -4.0695    1.6820 H         1 <0>         0.0891
     86 H44        -3.2573   -3.4493    2.6261 H         1 <0>         0.0515
     87 H45        -4.7186   -3.4787    3.6420 H         1 <0>         0.0565
     88 H46        -4.1184   -4.9824    2.9024 H         1 <0>         0.0621
     89 H47        -5.9076   -1.9472    0.4767 H         1 <0>         0.0610
     90 H48        -5.5991   -1.6621    2.2064 H         1 <0>         0.0603
     91 H49        -4.2400   -1.7269    1.0588 H         1 <0>         0.0619
@<TRIPOS>BOND
     1    1    2 1
     2    1   46 1
     3    1   47 1
     4    1   48 1
     5    2    3 1
     6    2   49 1
     7    2   50 1
     8    3    4 1
     9    3    5 1
    10    3    6 1
    11    5   51 1
    12    5   52 1
    13    5   53 1
    14    6    7 1
    15    6   54 1
    16    6   55 1
    17    7    8 am
    18    7   56 1
    19    8    9 2
    20    8   10 1
    21   10   11 1
    22   10   12 1
    23   10   43 1
    24   12   13 1
    25   12   57 1
    26   12   58 1
    27   13   14 1
    28   13   42 1
    29   13   59 1
    30   14   15 1
    31   14   16 1
    32   14   23 1
    33   16   17 1
    34   16   60 1
    35   16   61 1
    36   17   22 1
    37   17   18 1
    38   17   62 1
    39   18   19 1
    40   18   63 1
    41   18   64 1
    42   19   20 1
    43   19   65 1
    44   19   66 1
    45   20   21 1
    46   20   67 1
    47   20   68 1
    48   21   22 1
    49   21   69 1
    50   21   70 1
    51   22   71 1
    52   22   72 1
    53   23   24 am
    54   23   73 1
    55   24   25 2
    56   24   26 1
    57   26   27 1
    58   26   32 1
    59   26   74 1
    60   27   28 1
    61   27   31 1
    62   27   75 1
    63   28   29 2
    64   28   30 1
    65   31   76 1
    66   32   33 2
    67   32   34 1
    68   34   35 1
    69   34   77 1
    70   34   78 1
    71   35   36 1
    72   36   41 ar
    73   36   37 ar
    74   37   38 ar
    75   37   79 1
    76   38   39 ar
    77   38   80 1
    78   39   40 ar
    79   39   81 1
    80   40   41 ar
    81   40   82 1
    82   41   83 1
    83   42   84 1
    84   43   44 1
    85   43   45 1
    86   43   85 1
    87   44   86 1
    88   44   87 1
    89   44   88 1
    90   45   89 1
    91   45   90 1
    92   45   91 1
@<TRIPOS>MOLECULE
CHEMBL442105__4
   91    92     0     0     0
SMALL
USER_CHARGES

@<TRIPOS>ATOM
      1 C1          3.2372    0.5764    2.4076 C.3       1 <0>        -0.1521
      2 C2          2.9105   -0.9155    2.3147 C.3       1 <0>        -0.1188
      3 C3          1.4436   -1.0925    1.9177 C.3       1 <0>        -0.1024
      4 H1          0.8093   -0.5516    2.6200 H         1 <0>         0.0746
      5 C4          1.2271   -0.5422    0.5066 C.3       1 <0>        -0.1496
      6 C5          1.0835   -2.5793    1.9460 C.3       1 <0>         0.1203
      7 N1         -0.3487   -2.7399    1.6829 N.am      1 <0>        -0.7374
      8 C6         -0.8955   -3.9716    1.6589 C.2       1 <0>         0.5094
      9 O1         -0.1928   -4.9499    1.8010 O.2       1 <0>        -0.5127
     10 C7         -2.3799   -4.1332    1.4554 C.3       1 <0>        -0.0945
     11 H2         -2.6914   -3.5604    0.5819 H         1 <0>         0.0871
     12 C8         -2.7070   -5.6120    1.2388 C.3       1 <0>        -0.1331
     13 C9         -4.1787   -5.7567    0.8464 C.3       1 <0>         0.1037
     14 C10        -4.4676   -7.2134    0.4784 C.3       1 <0>         0.1213
     15 H3         -3.8372   -7.5081   -0.3606 H         1 <0>         0.1010
     16 C11        -5.9393   -7.3581    0.0861 C.3       1 <0>        -0.1164
     17 C12        -6.1995   -8.7851   -0.4008 C.3       1 <0>        -0.0832
     18 C13        -5.4109   -9.0366   -1.6876 C.3       1 <0>        -0.1059
     19 C14        -5.6710  -10.4636   -2.1744 C.3       1 <0>        -0.1123
     20 C15        -7.1654  -10.6445   -2.4484 C.3       1 <0>        -0.1178
     21 C16        -7.9540  -10.3930   -1.1616 C.3       1 <0>        -0.1163
     22 C17        -7.6938   -8.9660   -0.6748 C.3       1 <0>        -0.1121
     23 N2         -4.1822   -8.0737    1.6294 N.am      1 <0>        -0.7181
     24 C18        -3.8704   -9.3711    1.4401 C.2       1 <0>         0.5548
     25 O2         -3.8260   -9.8265    0.3169 O.2       1 <0>        -0.4927
     26 C19        -3.5768  -10.2561    2.6240 C.3       1 <0>        -0.1690
     27 C20        -2.3791   -9.6967    3.3943 C.3       1 <0>         0.0464
     28 C21        -1.1607   -9.7102    2.5074 C.2       1 <0>         0.4724
     29 O3         -1.1197   -9.0002    1.5171 O.co2     1 <0>        -0.6572
     30 O4         -0.2161  -10.4311    2.7802 O.co2     1 <0>        -0.6831
     31 O5         -2.1367  -10.5028    4.5490 O.3       1 <0>        -0.5521
     32 C22        -3.2592  -11.6487    2.1438 C.2       1 <0>         0.3500
     33 O6         -2.6555  -11.8079    1.1101 O.2       1 <0>        -0.3573
     34 C23        -3.6949  -12.8427    2.9534 C.3       1 <0>         0.0148
     35 O7         -3.1759  -14.0351    2.3610 O.3       1 <0>        -0.2892
     36 C24        -3.4787  -15.2102    2.9728 C.ar      1 <0>         0.1344
     37 C25        -4.2640  -15.2161    4.1164 C.ar      1 <0>        -0.2127
     38 C26        -4.5708  -16.4120    4.7361 C.ar      1 <0>        -0.0804
     39 C27        -4.0954  -17.6024    4.2178 C.ar      1 <0>        -0.1652
     40 C28        -3.3122  -17.5992    3.0784 C.ar      1 <0>        -0.0810
     41 C29        -3.0078  -16.4065    2.4514 C.ar      1 <0>        -0.1508
     42 O8         -5.0051   -5.3704    1.9464 O.3       1 <0>        -0.5521
     43 C30        -3.1227   -3.6224    2.6916 C.3       1 <0>        -0.1025
     44 C31        -2.6534   -4.3969    3.9248 C.3       1 <0>        -0.1504
     45 C32        -2.8302   -2.1328    2.8831 C.3       1 <0>        -0.1634
     46 H4          4.2823    0.7025    2.6904 H         1 <0>         0.0538
     47 H5          3.0633    1.0473    1.4401 H         1 <0>         0.0562
     48 H6          2.5989    1.0420    3.1584 H         1 <0>         0.0529
     49 H7          3.5489   -1.3811    1.5639 H         1 <0>         0.0658
     50 H8          3.0845   -1.3864    3.2822 H         1 <0>         0.0654
     51 H9          0.1820   -0.6683    0.2238 H         1 <0>         0.0532
     52 H10         1.4837    0.5170    0.4865 H         1 <0>         0.0587
     53 H11         1.8614   -1.0831   -0.1956 H         1 <0>         0.0577
     54 H12         1.6547   -3.1061    1.1816 H         1 <0>         0.0664
     55 H13         1.3213   -2.9921    2.9264 H         1 <0>         0.0649
     56 H14        -0.9035   -1.9599    1.5259 H         1 <0>         0.3972
     57 H15        -2.0779   -6.0105    0.4428 H         1 <0>         0.0871
     58 H16        -2.5206   -6.1641    2.1600 H         1 <0>         0.0870
     59 H17        -4.3910   -5.1167   -0.0099 H         1 <0>         0.1079
     60 H18        -6.5683   -7.1491    0.9514 H         1 <0>         0.0664
     61 H19        -6.1736   -6.6536   -0.7120 H         1 <0>         0.0644
     62 H20        -5.8820   -9.4935    0.3643 H         1 <0>         0.0761
     63 H21        -5.7284   -8.3281   -2.4526 H         1 <0>         0.0411
     64 H22        -4.3463   -8.9077   -1.4924 H         1 <0>         0.0856
     65 H23        -5.1093  -10.6428   -3.0911 H         1 <0>         0.0517
     66 H24        -5.3535  -11.1721   -1.4093 H         1 <0>         0.0661
     67 H25        -7.4829   -9.9360   -3.2135 H         1 <0>         0.0544
     68 H26        -7.3507  -11.6611   -2.7952 H         1 <0>         0.0525
     69 H27        -9.0186  -10.5219   -1.3568 H         1 <0>         0.0527
     70 H28        -7.6364  -11.1014   -0.3965 H         1 <0>         0.0574
     71 H29        -8.2556   -8.7868    0.2420 H         1 <0>         0.0530
     72 H30        -8.0113   -8.2575   -1.4398 H         1 <0>         0.0552
     73 H31        -4.2177   -7.7095    2.5277 H         1 <0>         0.3859
     74 H32        -4.4475  -10.2874    3.2790 H         1 <0>         0.1065
     75 H33        -2.5919   -8.6734    3.7038 H         1 <0>         0.1007
     76 H34        -1.9400  -11.4281    4.3485 H         1 <0>         0.3677
     77 H35        -3.3172  -12.7487    3.9716 H         1 <0>         0.0941
     78 H36        -4.7837  -12.8908    2.9729 H         1 <0>         0.0918
     79 H37        -4.6349  -14.2864    4.5221 H         1 <0>         0.1284
     80 H38        -5.1821  -16.4171    5.6265 H         1 <0>         0.1231
     81 H39        -4.3361  -18.5363    4.7040 H         1 <0>         0.1208
     82 H40        -2.9419  -18.5304    2.6756 H         1 <0>         0.1274
     83 H41        -2.3996  -16.4049    1.5589 H         1 <0>         0.1320
     84 H42        -4.8199   -5.8504    2.7651 H         1 <0>         0.3694
     85 H43        -4.1946   -3.7678    2.5574 H         1 <0>         0.1184
     86 H44        -1.5932   -4.2067    4.0916 H         1 <0>         0.0502
     87 H45        -3.2222   -4.0720    4.7961 H         1 <0>         0.0542
     88 H46        -2.8106   -5.4636    3.7654 H         1 <0>         0.0594
     89 H47        -3.0987   -1.5904    1.9766 H         1 <0>         0.0528
     90 H48        -3.4148   -1.7525    3.7207 H         1 <0>         0.0568
     91 H49        -1.7687   -1.9945    3.0883 H         1 <0>         0.0608
@<TRIPOS>BOND
     1    1    2 1
     2    1   46 1
     3    1   47 1
     4    1   48 1
     5    2    3 1
     6    2   49 1
     7    2   50 1
     8    3    4 1
     9    3    5 1
    10    3    6 1
    11    5   51 1
    12    5   52 1
    13    5   53 1
    14    6    7 1
    15    6   54 1
    16    6   55 1
    17    7    8 am
    18    7   56 1
    19    8    9 2
    20    8   10 1
    21   10   11 1
    22   10   12 1
    23   10   43 1
    24   12   13 1
    25   12   57 1
    26   12   58 1
    27   13   14 1
    28   13   42 1
    29   13   59 1
    30   14   15 1
    31   14   16 1
    32   14   23 1
    33   16   17 1
    34   16   60 1
    35   16   61 1
    36   17   22 1
    37   17   18 1
    38   17   62 1
    39   18   19 1
    40   18   63 1
    41   18   64 1
    42   19   20 1
    43   19   65 1
    44   19   66 1
    45   20   21 1
    46   20   67 1
    47   20   68 1
    48   21   22 1
    49   21   69 1
    50   21   70 1
    51   22   71 1
    52   22   72 1
    53   23   24 am
    54   23   73 1
    55   24   25 2
    56   24   26 1
    57   26   27 1
    58   26   32 1
    59   26   74 1
    60   27   28 1
    61   27   31 1
    62   27   75 1
    63   28   29 2
    64   28   30 1
    65   31   76 1
    66   32   33 2
    67   32   34 1
    68   34   35 1
    69   34   77 1
    70   34   78 1
    71   35   36 1
    72   36   41 ar
    73   36   37 ar
    74   37   38 ar
    75   37   79 1
    76   38   39 ar
    77   38   80 1
    78   39   40 ar
    79   39   81 1
    80   40   41 ar
    81   40   82 1
    82   41   83 1
    83   42   84 1
    84   43   44 1
    85   43   45 1
    86   43   85 1
    87   44   86 1
    88   44   87 1
    89   44   88 1
    90   45   89 1
    91   45   90 1
    92   45   91 1
@<TRIPOS>MOLECULE
CHEMBL442105__5
   91    92     0     0     0
SMALL
USER_CHARGES

@<TRIPOS>ATOM
      1 C1         -0.0680    0.5936   -2.9663 C.3       1 <0>        -0.1526
      2 C2         -0.0962   -0.8223   -2.3871 C.3       1 <0>        -0.1185
      3 C3         -1.5376   -1.2047   -2.0450 C.3       1 <0>        -0.1033
      4 H1         -1.9644   -0.4544   -1.3795 H         1 <0>         0.0756
      5 C4         -2.3650   -1.2765   -3.3300 C.3       1 <0>        -0.1499
      6 C5         -1.5526   -2.5687   -1.3520 C.3       1 <0>         0.1189
      7 N1         -2.9165   -2.8810   -0.9179 N.am      1 <0>        -0.7351
      8 C6         -3.1718   -4.0403   -0.2797 C.2       1 <0>         0.5137
      9 O1         -2.2852   -4.8522   -0.1193 O.2       1 <0>        -0.5251
     10 C7         -4.5589   -4.3278    0.2345 C.3       1 <0>        -0.0954
     11 H2         -5.2761   -4.2295   -0.5804 H         1 <0>         0.0906
     12 C8         -4.6114   -5.7519    0.7912 C.3       1 <0>        -0.1378
     13 C9         -6.0543   -6.1023    1.1603 C.3       1 <0>         0.1033
     14 C10        -6.1373   -7.5803    1.5470 C.3       1 <0>         0.1168
     15 H3         -5.8182   -8.1946    0.7050 H         1 <0>         0.0990
     16 C11        -7.5801   -7.9307    1.9161 C.3       1 <0>        -0.1171
     17 C12        -7.6880   -9.4335    2.1819 C.3       1 <0>        -0.0848
     18 C13        -7.4027  -10.2018    0.8899 C.3       1 <0>        -0.1035
     19 C14        -7.5106  -11.7046    1.1558 C.3       1 <0>        -0.1129
     20 C15        -8.9218  -12.0360    1.6452 C.3       1 <0>        -0.1178
     21 C16        -9.2071  -11.2677    2.9372 C.3       1 <0>        -0.1175
     22 C17        -9.0992   -9.7649    2.6713 C.3       1 <0>        -0.1123
     23 N2         -5.2640   -7.8344    2.6955 N.am      1 <0>        -0.7229
     24 C18        -4.7728   -9.0713    2.9079 C.2       1 <0>         0.5370
     25 O2         -5.0537   -9.9741    2.1483 O.2       1 <0>        -0.4979
     26 C19        -3.8744   -9.3327    4.0893 C.3       1 <0>        -0.1736
     27 C20        -2.6273   -8.4524    3.9863 C.3       1 <0>         0.0543
     28 C21        -1.7289   -8.7137    5.1677 C.2       1 <0>         0.4686
     29 O3         -0.6278   -9.2091    4.9985 O.co2     1 <0>        -0.6691
     30 O4         -2.1033   -8.4298    6.2928 O.co2     1 <0>        -0.6869
     31 O5         -1.9270   -8.7579    2.7787 O.3       1 <0>        -0.5443
     32 C22        -3.4660  -10.7832    4.0987 C.2       1 <0>         0.3739
     33 O6         -3.3704  -11.3903    3.0591 O.2       1 <0>        -0.3945
     34 C23        -3.1770  -11.4763    5.4053 C.3       1 <0>         0.0103
     35 O7         -2.8133  -12.8351    5.1535 O.3       1 <0>        -0.2952
     36 C24        -2.5189  -13.6053    6.2338 C.ar      1 <0>         0.1364
     37 C25        -2.5845  -13.0660    7.5103 C.ar      1 <0>        -0.2059
     38 C26        -2.2853  -13.8511    8.6068 C.ar      1 <0>        -0.0790
     39 C27        -1.9202  -15.1733    8.4329 C.ar      1 <0>        -0.1663
     40 C28        -1.8536  -15.7131    7.1617 C.ar      1 <0>        -0.0846
     41 C29        -2.1579  -14.9338    6.0623 C.ar      1 <0>        -0.1541
     42 O8         -6.4726   -5.2969    2.2641 O.3       1 <0>        -0.5500
     43 C30        -4.9078   -3.3334    1.3437 C.3       1 <0>        -0.1011
     44 C31        -3.8986   -3.4684    2.4857 C.3       1 <0>        -0.1516
     45 C32        -4.8593   -1.9095    0.7860 C.3       1 <0>        -0.1712
     46 H4          0.9589    0.8660   -3.2100 H         1 <0>         0.0545
     47 H5         -0.6774    0.6290   -3.8693 H         1 <0>         0.0563
     48 H6         -0.4653    1.2944   -2.2321 H         1 <0>         0.0535
     49 H7          0.3011   -1.5232   -3.1213 H         1 <0>         0.0656
     50 H8          0.5132   -0.8577   -1.4841 H         1 <0>         0.0659
     51 H9         -3.3918   -1.5489   -3.0862 H         1 <0>         0.0527
     52 H10        -2.3543   -0.3047   -3.8237 H         1 <0>         0.0599
     53 H11        -1.9382   -2.0268   -3.9955 H         1 <0>         0.0575
     54 H12        -1.2087   -3.3337   -2.0481 H         1 <0>         0.0666
     55 H13        -0.8922   -2.5431   -0.4851 H         1 <0>         0.0667
     56 H14        -3.6358   -2.2533   -1.0897 H         1 <0>         0.4007
     57 H15        -4.2495   -6.4505    0.0368 H         1 <0>         0.0824
     58 H16        -3.9829   -5.8183    1.6793 H         1 <0>         0.0862
     59 H17        -6.7040   -5.9133    0.3058 H         1 <0>         0.1103
     60 H18        -7.8696   -7.3815    2.8121 H         1 <0>         0.0692
     61 H19        -8.2418   -7.6588    1.0937 H         1 <0>         0.0659
     62 H20        -6.9626   -9.7208    2.9432 H         1 <0>         0.0770
     63 H21        -8.1281   -9.9145    0.1287 H         1 <0>         0.0417
     64 H22        -6.3974   -9.9657    0.5413 H         1 <0>         0.0810
     65 H23        -7.3074  -12.2519    0.2353 H         1 <0>         0.0514
     66 H24        -6.7853  -11.9919    1.9170 H         1 <0>         0.0673
     67 H25        -9.6472  -11.7487    0.8840 H         1 <0>         0.0544
     68 H26        -8.9987  -13.1066    1.8346 H         1 <0>         0.0536
     69 H27       -10.2125  -11.5038    3.2859 H         1 <0>         0.0540
     70 H28        -8.4817  -11.5550    3.6984 H         1 <0>         0.0588
     71 H29        -9.3024   -9.2176    3.5918 H         1 <0>         0.0546
     72 H30        -9.8246   -9.4776    1.9101 H         1 <0>         0.0554
     73 H31        -5.0393   -7.1123    3.3030 H         1 <0>         0.3924
     74 H32        -4.4085   -9.0996    5.0105 H         1 <0>         0.1268
     75 H33        -2.9227   -7.4032    3.9796 H         1 <0>         0.1027
     76 H34        -1.6334   -9.6771    2.7160 H         1 <0>         0.3737
     77 H35        -2.3565  -10.9684    5.9122 H         1 <0>         0.1184
     78 H36        -4.0660  -11.4489    6.0355 H         1 <0>         0.0896
     79 H37        -2.8690  -12.0330    7.6466 H         1 <0>         0.1322
     80 H38        -2.3362  -13.4317    9.6008 H         1 <0>         0.1236
     81 H39        -1.6863  -15.7854    9.2914 H         1 <0>         0.1199
     82 H40        -1.5678  -16.7460    7.0284 H         1 <0>         0.1256
     83 H41        -2.1100  -15.3571    5.0699 H         1 <0>         0.1293
     84 H42        -5.8947   -5.3582    3.0370 H         1 <0>         0.3721
     85 H43        -5.9099   -3.5432    1.7177 H         1 <0>         0.1180
     86 H44        -2.9077   -3.1860    2.1302 H         1 <0>         0.0503
     87 H45        -4.1900   -2.8141    3.3074 H         1 <0>         0.0577
     88 H46        -3.8792   -4.5014    2.8332 H         1 <0>         0.0591
     89 H47        -5.5849   -1.8106   -0.0214 H         1 <0>         0.0538
     90 H48        -5.0988   -1.2005    1.5785 H         1 <0>         0.0595
     91 H49        -3.8597   -1.7029    0.4035 H         1 <0>         0.0658
@<TRIPOS>BOND
     1    1    2 1
     2    1   46 1
     3    1   47 1
     4    1   48 1
     5    2    3 1
     6    2   49 1
     7    2   50 1
     8    3    4 1
     9    3    5 1
    10    3    6 1
    11    5   51 1
    12    5   52 1
    13    5   53 1
    14    6    7 1
    15    6   54 1
    16    6   55 1
    17    7    8 am
    18    7   56 1
    19    8    9 2
    20    8   10 1
    21   10   11 1
    22   10   12 1
    23   10   43 1
    24   12   13 1
    25   12   57 1
    26   12   58 1
    27   13   14 1
    28   13   42 1
    29   13   59 1
    30   14   15 1
    31   14   16 1
    32   14   23 1
    33   16   17 1
    34   16   60 1
    35   16   61 1
    36   17   22 1
    37   17   18 1
    38   17   62 1
    39   18   19 1
    40   18   63 1
    41   18   64 1
    42   19   20 1
    43   19   65 1
    44   19   66 1
    45   20   21 1
    46   20   67 1
    47   20   68 1
    48   21   22 1
    49   21   69 1
    50   21   70 1
    51   22   71 1
    52   22   72 1
    53   23   24 am
    54   23   73 1
    55   24   25 2
    56   24   26 1
    57   26   27 1
    58   26   32 1
    59   26   74 1
    60   27   28 1
    61   27   31 1
    62   27   75 1
    63   28   29 2
    64   28   30 1
    65   31   76 1
    66   32   33 2
    67   32   34 1
    68   34   35 1
    69   34   77 1
    70   34   78 1
    71   35   36 1
    72   36   41 ar
    73   36   37 ar
    74   37   38 ar
    75   37   79 1
    76   38   39 ar
    77   38   80 1
    78   39   40 ar
    79   39   81 1
    80   40   41 ar
    81   40   82 1
    82   41   83 1
    83   42   84 1
    84   43   44 1
    85   43   45 1
    86   43   85 1
    87   44   86 1
    88   44   87 1
    89   44   88 1
    90   45   89 1
    91   45   90 1
    92   45   91 1
@<TRIPOS>MOLECULE
CHEMBL442105__6
   91    92     0     0     0
SMALL
USER_CHARGES

@<TRIPOS>ATOM
      1 C1         -0.5764    1.8314   -1.6910 C.3       1 <0>        -0.1531
      2 C2         -0.3533    0.3713   -1.2922 C.3       1 <0>        -0.1179
      3 C3         -1.6986   -0.3561   -1.2462 C.3       1 <0>        -0.1038
      4 H1         -2.3775    0.1774   -0.5808 H         1 <0>         0.0762
      5 C4         -2.2988   -0.4078   -2.6526 C.3       1 <0>        -0.1503
      6 C5         -1.4908   -1.7804   -0.7276 C.3       1 <0>         0.1202
      7 N1         -2.7907   -2.4374   -0.5703 N.am      1 <0>        -0.7335
      8 C6         -2.8544   -3.7071   -0.1227 C.2       1 <0>         0.5180
      9 O1         -1.8338   -4.3260    0.0927 O.2       1 <0>        -0.5349
     10 C7         -4.1936   -4.3578    0.1100 C.3       1 <0>        -0.0965
     11 H2         -4.8058   -4.2599   -0.7865 H         1 <0>         0.0915
     12 C8         -3.9915   -5.8402    0.4303 C.3       1 <0>        -0.1374
     13 C9         -5.3523   -6.5355    0.5068 C.3       1 <0>         0.1030
     14 C10        -5.1465   -8.0453    0.6439 C.3       1 <0>         0.1165
     15 H3         -4.5966   -8.4171   -0.2207 H         1 <0>         0.0985
     16 C11        -6.5073   -8.7406    0.7204 C.3       1 <0>        -0.1173
     17 C12        -6.3051  -10.2572    0.7319 C.3       1 <0>        -0.0894
     18 C13        -5.6981  -10.7010   -0.6006 C.3       1 <0>        -0.1027
     19 C14        -5.4960  -12.2175   -0.5890 C.3       1 <0>        -0.1135
     20 C15        -6.8452  -12.9103   -0.3873 C.3       1 <0>        -0.1159
     21 C16        -7.4522  -12.4665    0.9452 C.3       1 <0>        -0.1179
     22 C17        -7.6543  -10.9500    0.9336 C.3       1 <0>        -0.1074
     23 N2         -4.3857   -8.3257    1.8641 N.am      1 <0>        -0.7263
     24 C18        -3.6580   -9.4560    1.9597 C.2       1 <0>         0.5343
     25 O2         -3.5510  -10.1913    1.0012 O.2       1 <0>        -0.4946
     26 C19        -2.9771   -9.8063    3.2577 C.3       1 <0>        -0.1743
     27 C20        -4.0336  -10.0836    4.3291 C.3       1 <0>         0.0556
     28 C21        -3.3574  -10.2876    5.6604 C.2       1 <0>         0.4694
     29 O3         -2.7743   -9.3607    6.1963 O.co2     1 <0>        -0.6851
     30 O4         -3.3936  -11.3796    6.2015 O.co2     1 <0>        -0.6709
     31 O5         -4.7667  -11.2601    3.9820 O.3       1 <0>        -0.5448
     32 C22        -2.1251  -11.0340    3.0627 C.2       1 <0>         0.3697
     33 O6         -2.3915  -11.8208    2.1863 O.2       1 <0>        -0.3897
     34 C23        -0.9407  -11.2796    3.9615 C.3       1 <0>         0.0067
     35 O7         -0.2981  -12.4978    3.5804 O.3       1 <0>        -0.2960
     36 C24         0.7963  -12.8682    4.2960 C.ar      1 <0>         0.1357
     37 C25         1.2390  -12.0784    5.3472 C.ar      1 <0>        -0.2047
     38 C26         2.3514  -12.4573    6.0734 C.ar      1 <0>        -0.0789
     39 C27         3.0237  -13.6224    5.7531 C.ar      1 <0>        -0.1659
     40 C28         2.5846  -14.4110    4.7057 C.ar      1 <0>        -0.0852
     41 C29         1.4691  -14.0396    3.9803 C.ar      1 <0>        -0.1541
     42 O8         -6.0732   -6.0481    1.6402 O.3       1 <0>        -0.5487
     43 C30        -4.8959   -3.6734    1.2844 C.3       1 <0>        -0.1020
     44 C31        -4.0360   -3.8097    2.5426 C.3       1 <0>        -0.1510
     45 C32        -5.0990   -2.1912    0.9637 C.3       1 <0>        -0.1647
     46 H4          0.3820    2.3496   -1.7238 H         1 <0>         0.0547
     47 H5         -1.0452    1.8720   -2.6742 H         1 <0>         0.0567
     48 H6         -1.2250    2.3130   -0.9592 H         1 <0>         0.0539
     49 H7          0.2952   -0.1103   -2.0240 H         1 <0>         0.0653
     50 H8          0.1154    0.3307   -0.3090 H         1 <0>         0.0654
     51 H9         -3.2572   -0.9260   -2.6198 H         1 <0>         0.0530
     52 H10        -2.4468    0.6069   -3.0220 H         1 <0>         0.0605
     53 H11        -1.6199   -0.9412   -3.3179 H         1 <0>         0.0574
     54 H12        -0.8840   -2.3411   -1.4387 H         1 <0>         0.0664
     55 H13        -0.9823   -1.7458    0.2359 H         1 <0>         0.0660
     56 H14        -3.6057   -1.9586   -0.7883 H         1 <0>         0.4006
     57 H15        -3.3908   -6.3025   -0.3529 H         1 <0>         0.0803
     58 H16        -3.4790   -5.9386    1.3872 H         1 <0>         0.0840
     59 H17        -5.9184   -6.3269   -0.4011 H         1 <0>         0.1105
     60 H18        -7.0204   -8.4355    1.6323 H         1 <0>         0.0695
     61 H19        -7.1075   -8.4607   -0.1453 H         1 <0>         0.0633
     62 H20        -5.6324  -10.5279    1.5457 H         1 <0>         0.0919
     63 H21        -6.3709  -10.4303   -1.4144 H         1 <0>         0.0388
     64 H22        -4.7370  -10.2074   -0.7443 H         1 <0>         0.0764
     65 H23        -5.0636  -12.5336   -1.5383 H         1 <0>         0.0475
     66 H24        -4.8233  -12.4882    0.2248 H         1 <0>         0.0726
     67 H25        -7.5179  -12.6396   -1.2011 H         1 <0>         0.0510
     68 H26        -6.7012  -13.9907   -0.3791 H         1 <0>         0.0525
     69 H27        -8.4133  -12.9601    1.0889 H         1 <0>         0.0514
     70 H28        -6.7794  -12.7372    1.7590 H         1 <0>         0.0665
     71 H29        -8.0867  -10.6338    1.8829 H         1 <0>         0.0552
     72 H30        -8.3270  -10.6793    0.1198 H         1 <0>         0.0497
     73 H31        -4.4056   -7.6977    2.6031 H         1 <0>         0.3927
     74 H32        -2.3483   -8.9742    3.5743 H         1 <0>         0.1269
     75 H33        -4.7161   -9.2363    4.3943 H         1 <0>         0.1050
     76 H34        -4.2215  -12.0552    3.9063 H         1 <0>         0.3719
     77 H35        -0.2364  -10.4529    3.8687 H         1 <0>         0.0903
     78 H36        -1.2784  -11.3549    4.9952 H         1 <0>         0.1201
     79 H37         0.7147  -11.1679    5.5973 H         1 <0>         0.1326
     80 H38         2.6965  -11.8428    6.8917 H         1 <0>         0.1238
     81 H39         3.8933  -13.9167    6.3218 H         1 <0>         0.1199
     82 H40         3.1116  -15.3203    4.4572 H         1 <0>         0.1255
     83 H41         1.1239  -14.6582    3.1651 H         1 <0>         0.1291
     84 H42        -5.5955   -6.1333    2.4766 H         1 <0>         0.3728
     85 H43        -5.8642   -4.1445    1.4533 H         1 <0>         0.1195
     86 H44        -3.0964   -3.2758    2.4001 H         1 <0>         0.0491
     87 H45        -4.5687   -3.3868    3.3943 H         1 <0>         0.0588
     88 H46        -3.8302   -4.8637    2.7296 H         1 <0>         0.0594
     89 H47        -5.5983   -2.0932   -0.0002 H         1 <0>         0.0533
     90 H48        -5.7125   -1.7324    1.7390 H         1 <0>         0.0603
     91 H49        -4.1308   -1.6921    0.9237 H         1 <0>         0.0606
@<TRIPOS>BOND
     1    1    2 1
     2    1   46 1
     3    1   47 1
     4    1   48 1
     5    2    3 1
     6    2   49 1
     7    2   50 1
     8    3    4 1
     9    3    5 1
    10    3    6 1
    11    5   51 1
    12    5   52 1
    13    5   53 1
    14    6    7 1
    15    6   54 1
    16    6   55 1
    17    7    8 am
    18    7   56 1
    19    8    9 2
    20    8   10 1
    21   10   11 1
    22   10   12 1
    23   10   43 1
    24   12   13 1
    25   12   57 1
    26   12   58 1
    27   13   14 1
    28   13   42 1
    29   13   59 1
    30   14   15 1
    31   14   16 1
    32   14   23 1
    33   16   17 1
    34   16   60 1
    35   16   61 1
    36   17   22 1
    37   17   18 1
    38   17   62 1
    39   18   19 1
    40   18   63 1
    41   18   64 1
    42   19   20 1
    43   19   65 1
    44   19   66 1
    45   20   21 1
    46   20   67 1
    47   20   68 1
    48   21   22 1
    49   21   69 1
    50   21   70 1
    51   22   71 1
    52   22   72 1
    53   23   24 am
    54   23   73 1
    55   24   25 2
    56   24   26 1
    57   26   27 1
    58   26   32 1
    59   26   74 1
    60   27   28 1
    61   27   31 1
    62   27   75 1
    63   28   29 2
    64   28   30 1
    65   31   76 1
    66   32   33 2
    67   32   34 1
    68   34   35 1
    69   34   77 1
    70   34   78 1
    71   35   36 1
    72   36   41 ar
    73   36   37 ar
    74   37   38 ar
    75   37   79 1
    76   38   39 ar
    77   38   80 1
    78   39   40 ar
    79   39   81 1
    80   40   41 ar
    81   40   82 1
    82   41   83 1
    83   42   84 1
    84   43   44 1
    85   43   45 1
    86   43   85 1
    87   44   86 1
    88   44   87 1
    89   44   88 1
    90   45   89 1
    91   45   90 1
    92   45   91 1
@<TRIPOS>MOLECULE
CHEMBL442105__7
   91    92     0     0     0
SMALL
USER_CHARGES

@<TRIPOS>ATOM
      1 C1         -0.0596    0.5776   -2.9740 C.3       1 <0>        -0.1530
      2 C2         -0.0902   -0.8373   -2.3925 C.3       1 <0>        -0.1175
      3 C3         -1.5322   -1.2167   -2.0497 C.3       1 <0>        -0.1042
      4 H1         -1.9578   -0.4645   -1.3855 H         1 <0>         0.0765
      5 C4         -2.3597   -1.2892   -3.3346 C.3       1 <0>        -0.1501
      6 C5         -1.5495   -2.5795   -1.3545 C.3       1 <0>         0.1198
      7 N1         -2.9140   -2.8887   -0.9199 N.am      1 <0>        -0.7346
      8 C6         -3.1713   -4.0465   -0.2798 C.2       1 <0>         0.5196
      9 O1         -2.2861   -4.8597   -0.1180 O.2       1 <0>        -0.5360
     10 C7         -4.5589   -4.3308    0.2349 C.3       1 <0>        -0.0944
     11 H2         -5.2759   -4.2326   -0.5802 H         1 <0>         0.0906
     12 C8         -4.6139   -5.7539    0.7939 C.3       1 <0>        -0.1385
     13 C9         -6.0574   -6.1013    1.1634 C.3       1 <0>         0.1029
     14 C10        -6.1429   -7.5785    1.5525 C.3       1 <0>         0.1168
     15 H3         -5.8247   -8.1947    0.7116 H         1 <0>         0.0911
     16 C11        -7.5864   -7.9258    1.9221 C.3       1 <0>        -0.1189
     17 C12        -7.6968   -9.4281    2.1904 C.3       1 <0>        -0.0795
     18 C13        -7.4127  -10.1989    0.8996 C.3       1 <0>        -0.1010
     19 C14        -7.5231  -11.7012    1.1679 C.3       1 <0>        -0.1130
     20 C15        -8.9349  -12.0294    1.6577 C.3       1 <0>        -0.1157
     21 C16        -9.2190  -11.2585    2.9485 C.3       1 <0>        -0.1171
     22 C17        -9.1086   -9.7563    2.6802 C.3       1 <0>        -0.1131
     23 N2         -5.2701   -7.8321    2.7015 N.am      1 <0>        -0.7075
     24 C18        -4.7810   -9.0696    2.9161 C.2       1 <0>         0.5225
     25 O2         -5.0634   -9.9731    2.1579 O.2       1 <0>        -0.5095
     26 C19        -3.8832   -9.3305    4.0980 C.3       1 <0>        -0.1747
     27 C20        -4.6325   -9.0000    5.3904 C.3       1 <0>         0.0455
     28 C21        -5.0385   -7.5488    5.3786 C.2       1 <0>         0.4719
     29 O3         -6.2193   -7.2462    5.3552 O.co2     1 <0>        -0.6575
     30 O4         -4.1860   -6.6772    5.3925 O.co2     1 <0>        -0.6880
     31 O5         -5.7987   -9.8201    5.4878 O.3       1 <0>        -0.5477
     32 C22        -3.4773  -10.7817    4.1098 C.2       1 <0>         0.3665
     33 O6         -4.1767  -11.6087    3.5757 O.2       1 <0>        -0.3821
     34 C23        -2.1985  -11.2010    4.7880 C.3       1 <0>         0.0128
     35 O7         -2.0353  -12.6152    4.6644 O.3       1 <0>        -0.2929
     36 C24        -0.9238  -13.1594    5.2261 C.ar      1 <0>         0.1325
     37 C25        -0.0121  -12.3497    5.8877 C.ar      1 <0>        -0.2116
     38 C26         1.1167  -12.9054    6.4582 C.ar      1 <0>        -0.0794
     39 C27         1.3383  -14.2673    6.3700 C.ar      1 <0>        -0.1640
     40 C28         0.4314  -15.0764    5.7108 C.ar      1 <0>        -0.0819
     41 C29        -0.7020  -14.5264    5.1439 C.ar      1 <0>        -0.1521
     42 O8         -6.4744   -5.2934    2.2659 O.3       1 <0>        -0.5490
     43 C30        -4.9062   -3.3340    1.3424 C.3       1 <0>        -0.1031
     44 C31        -3.8972   -3.4687    2.4846 C.3       1 <0>        -0.1495
     45 C32        -4.8554   -1.9111    0.7823 C.3       1 <0>        -0.1695
     46 H4          0.9678    0.8479   -3.2181 H         1 <0>         0.0541
     47 H5         -0.6689    0.6125   -3.8771 H         1 <0>         0.0565
     48 H6         -0.4557    1.2803   -2.2409 H         1 <0>         0.0540
     49 H7          0.3060   -1.5400   -3.1255 H         1 <0>         0.0648
     50 H8          0.5191   -0.8722   -1.4894 H         1 <0>         0.0652
     51 H9         -3.3870   -1.5595   -3.0905 H         1 <0>         0.0536
     52 H10        -2.3473   -0.3183   -3.8300 H         1 <0>         0.0599
     53 H11        -1.9341   -2.0414   -3.9989 H         1 <0>         0.0570
     54 H12        -1.2070   -3.3463   -2.0493 H         1 <0>         0.0653
     55 H13        -0.8892   -2.5535   -0.4876 H         1 <0>         0.0656
     56 H14        -3.6322   -2.2601   -1.0928 H         1 <0>         0.4021
     57 H15        -4.2530   -6.4544    0.0407 H         1 <0>         0.0767
     58 H16        -3.9855   -5.8199    1.6821 H         1 <0>         0.0849
     59 H17        -6.7067   -5.9126    0.3086 H         1 <0>         0.1060
     60 H18        -7.8750   -7.3747    2.8171 H         1 <0>         0.0815
     61 H19        -8.2475   -7.6542    1.0991 H         1 <0>         0.0597
     62 H20        -6.9720   -9.7153    2.9521 H         1 <0>         0.0787
     63 H21        -8.1375   -9.9117    0.1379 H         1 <0>         0.0386
     64 H22        -6.4068   -9.9651    0.5507 H         1 <0>         0.0766
     65 H23        -7.3207  -12.2503    0.2484 H         1 <0>         0.0460
     66 H24        -6.7983  -11.9884    1.9297 H         1 <0>         0.0725
     67 H25        -9.6597  -11.7421    0.8960 H         1 <0>         0.0517
     68 H26        -9.0135  -13.0996    1.8489 H         1 <0>         0.0508
     69 H27       -10.2248  -11.4923    3.2974 H         1 <0>         0.0519
     70 H28        -8.4942  -11.5458    3.7102 H         1 <0>         0.0619
     71 H29        -9.3110   -9.2071    3.5997 H         1 <0>         0.0602
     72 H30        -9.8334   -9.4690    1.9184 H         1 <0>         0.0521
     73 H31        -5.0442   -7.1095    3.3079 H         1 <0>         0.4128
     74 H32        -2.9937   -8.7050    4.0237 H         1 <0>         0.1269
     75 H33        -3.9832   -9.1887    6.2453 H         1 <0>         0.1025
     76 H34        -6.4230   -9.7043    4.7585 H         1 <0>         0.3720
     77 H35        -1.3551  -10.6954    4.3176 H         1 <0>         0.0943
     78 H36        -2.2414  -10.9310    5.8432 H         1 <0>         0.0964
     79 H37        -0.1844  -11.2857    5.9563 H         1 <0>         0.1301
     80 H38         1.8268  -12.2754    6.9733 H         1 <0>         0.1243
     81 H39         2.2216  -14.6998    6.8164 H         1 <0>         0.1214
     82 H40         0.6069  -16.1399    5.6429 H         1 <0>         0.1274
     83 H41        -1.4124  -15.1595    4.6330 H         1 <0>         0.1308
     84 H42        -5.8966   -5.3542    3.0389 H         1 <0>         0.3852
     85 H43        -5.9086   -3.5415    1.7168 H         1 <0>         0.1209
     86 H44        -2.9058   -3.1885    2.1286 H         1 <0>         0.0442
     87 H45        -4.1875   -2.8126    3.3052 H         1 <0>         0.0581
     88 H46        -3.8794   -4.5011    2.8338 H         1 <0>         0.0662
     89 H47        -5.5808   -1.8124   -0.0253 H         1 <0>         0.0528
     90 H48        -5.0937   -1.2004    1.5736 H         1 <0>         0.0600
     91 H49        -3.8555   -1.7068    0.3994 H         1 <0>         0.0631
@<TRIPOS>BOND
     1    1    2 1
     2    1   46 1
     3    1   47 1
     4    1   48 1
     5    2    3 1
     6    2   49 1
     7    2   50 1
     8    3    4 1
     9    3    5 1
    10    3    6 1
    11    5   51 1
    12    5   52 1
    13    5   53 1
    14    6    7 1
    15    6   54 1
    16    6   55 1
    17    7    8 am
    18    7   56 1
    19    8    9 2
    20    8   10 1
    21   10   11 1
    22   10   12 1
    23   10   43 1
    24   12   13 1
    25   12   57 1
    26   12   58 1
    27   13   14 1
    28   13   42 1
    29   13   59 1
    30   14   15 1
    31   14   16 1
    32   14   23 1
    33   16   17 1
    34   16   60 1
    35   16   61 1
    36   17   22 1
    37   17   18 1
    38   17   62 1
    39   18   19 1
    40   18   63 1
    41   18   64 1
    42   19   20 1
    43   19   65 1
    44   19   66 1
    45   20   21 1
    46   20   67 1
    47   20   68 1
    48   21   22 1
    49   21   69 1
    50   21   70 1
    51   22   71 1
    52   22   72 1
    53   23   24 am
    54   23   73 1
    55   24   25 2
    56   24   26 1
    57   26   27 1
    58   26   32 1
    59   26   74 1
    60   27   28 1
    61   27   31 1
    62   27   75 1
    63   28   29 2
    64   28   30 1
    65   31   76 1
    66   32   33 2
    67   32   34 1
    68   34   35 1
    69   34   77 1
    70   34   78 1
    71   35   36 1
    72   36   41 ar
    73   36   37 ar
    74   37   38 ar
    75   37   79 1
    76   38   39 ar
    77   38   80 1
    78   39   40 ar
    79   39   81 1
    80   40   41 ar
    81   40   82 1
    82   41   83 1
    83   42   84 1
    84   43   44 1
    85   43   45 1
    86   43   85 1
    87   44   86 1
    88   44   87 1
    89   44   88 1
    90   45   89 1
    91   45   90 1
    92   45   91 1
@<TRIPOS>MOLECULE
CHEMBL537888
   84    84     0     0     0
SMALL
USER_CHARGES

@<TRIPOS>ATOM
      1 C1          1.1934   -1.3039   -5.8879 C.3       1 <0>        -0.1522
      2 C2          0.1772   -0.4056   -5.1799 C.3       1 <0>        -0.1068
      3 H1          0.5804   -0.0886   -4.2181 H         1 <0>         0.1132
      4 C3         -1.1221   -1.1823   -4.9572 C.3       1 <0>        -0.1518
      5 C4         -2.0751   -0.3471   -4.0998 C.3       1 <0>         0.0838
      6 H2         -2.2122    0.6324   -4.5581 H         1 <0>         0.1593
      7 C5         -3.4266   -1.0572   -4.0002 C.3       1 <0>        -0.0089
      8 H3         -3.8476   -1.1787   -4.9982 H         1 <0>         0.1562
      9 C6         -4.3796   -0.2220   -3.1429 C.3       1 <0>        -0.1422
     10 C7         -5.7621   -0.8773   -3.1310 C.3       1 <0>        -0.0876
     11 H4         -5.6687   -1.9170   -2.8174 H         1 <0>         0.0656
     12 C8         -6.3654   -0.8206   -4.5359 C.3       1 <0>        -0.0815
     13 C9         -7.6616   -1.5891   -4.5574 C.ar      1 <0>        -0.0883
     14 C10        -7.6478   -2.9599   -4.7367 C.ar      1 <0>        -0.1204
     15 C11        -8.8342   -3.6693   -4.7572 C.ar      1 <0>        -0.1701
     16 C12       -10.0405   -3.0066   -4.5972 C.ar      1 <0>         0.1056
     17 C13       -10.0543   -1.6270   -4.4162 C.ar      1 <0>         0.1126
     18 C14        -8.8613   -0.9225   -4.3919 C.ar      1 <0>        -0.1680
     19 O1        -11.2357   -0.9721   -4.2588 O.3       1 <0>        -0.2978
     20 C15       -11.1734    0.4440   -4.0777 C.3       1 <0>         0.0645
     21 C16       -12.5897    1.0007   -3.9188 C.3       1 <0>        -0.1221
     22 C17       -12.5230    2.5169   -3.7249 C.3       1 <0>         0.0664
     23 O2        -13.8457    3.0368   -3.5765 O.3       1 <0>        -0.3884
     24 C18       -13.8961    4.4525   -3.3886 C.3       1 <0>         0.0308
     25 O3        -11.2085   -3.7030   -4.6175 O.3       1 <0>        -0.3028
     26 C19       -11.1179   -5.1163   -4.8080 C.3       1 <0>         0.0250
     27 C20        -6.6724   -0.1298   -2.1546 C.3       1 <0>        -0.0918
     28 C21        -6.1161   -0.2623   -0.7354 C.3       1 <0>        -0.1551
     29 C22        -6.7322    1.3488   -2.5430 C.3       1 <0>        -0.1588
     30 N1         -3.2418   -2.3772   -3.3827 N.4       1 <0>        -0.6418
     31 O4         -1.5231   -0.1878   -2.7914 O.3       1 <0>        -0.5348
     32 C23        -0.1016    0.8060   -6.0316 C.2       1 <0>         0.5214
     33 O5         -1.2284    1.0265   -6.4221 O.2       1 <0>        -0.5442
     34 N2          0.9014    1.6445   -6.3594 N.am      1 <0>        -0.7204
     35 C24         0.6304    2.8223   -7.1874 C.3       1 <0>         0.1075
     36 C25         1.9296    3.5990   -7.4101 C.3       1 <0>         0.1051
     37 N3          1.6586    4.7768   -8.2381 N.am      1 <0>        -0.7325
     38 C26         2.6616    5.6153   -8.5659 C.2       1 <0>         0.5138
     39 O6          3.7884    5.3948   -8.1754 O.2       1 <0>        -0.5407
     40 C27         2.3828    6.8269   -9.4176 C.3       1 <0>        -0.1721
     41 H5          2.0875   -0.7262   -6.1226 H         1 <0>         0.0700
     42 H6          1.4593   -2.1359   -5.2358 H         1 <0>         0.0730
     43 H7          0.7576   -1.6894   -6.8095 H         1 <0>         0.0663
     44 H8         -1.5889   -1.3929   -5.9194 H         1 <0>         0.1006
     45 H9         -0.9018   -2.1201   -4.4472 H         1 <0>         0.0728
     46 H10        -3.9961   -0.1644   -2.1242 H         1 <0>         0.1021
     47 H11        -4.4571    0.7824   -3.5592 H         1 <0>         0.1196
     48 H12        -6.5540    0.2177   -4.8088 H         1 <0>         0.0874
     49 H13        -5.6690   -1.2628   -5.2485 H         1 <0>         0.0700
     50 H14        -6.7082   -3.4775   -4.8615 H         1 <0>         0.1173
     51 H15        -8.8207   -4.7400   -4.8981 H         1 <0>         0.1368
     52 H16        -8.8690    0.1478   -4.2479 H         1 <0>         0.1353
     53 H17       -10.5916    0.6708   -3.1843 H         1 <0>         0.0635
     54 H18       -10.6988    0.9008   -4.9461 H         1 <0>         0.0644
     55 H19       -13.1716    0.7739   -4.8122 H         1 <0>         0.0861
     56 H20       -13.0643    0.5439   -3.0504 H         1 <0>         0.0856
     57 H21       -11.9411    2.7437   -2.8315 H         1 <0>         0.0513
     58 H22       -12.0483    2.9737   -4.5933 H         1 <0>         0.0520
     59 H23       -13.3428    4.7194   -2.4882 H         1 <0>         0.0431
     60 H24       -13.4500    4.9494   -4.2500 H         1 <0>         0.0435
     61 H25       -14.9341    4.7684   -3.2842 H         1 <0>         0.0911
     62 H26       -10.6365   -5.3240   -5.7636 H         1 <0>         0.0565
     63 H27       -10.5296   -5.5546   -4.0019 H         1 <0>         0.0555
     64 H28       -12.1186   -5.5484   -4.8039 H         1 <0>         0.1057
     65 H29        -7.6748   -0.5564   -2.1932 H         1 <0>         0.0847
     66 H30        -6.8178    0.1788   -0.0275 H         1 <0>         0.0634
     67 H31        -5.9746   -1.3165   -0.4976 H         1 <0>         0.0527
     68 H32        -5.1598    0.2565   -0.6702 H         1 <0>         0.0574
     69 H33        -7.2015    1.4487   -3.5217 H         1 <0>         0.0588
     70 H34        -7.3160    1.8957   -1.8026 H         1 <0>         0.0621
     71 H35        -5.7216    1.7555   -2.5814 H         1 <0>         0.0597
     72 H36        -4.1175   -2.8784   -3.3918 H         1 <0>         0.4381
     73 H37        -2.5510   -2.8978   -3.9021 H         1 <0>         0.4327
     74 H38        -1.3739   -1.0207   -2.3234 H         1 <0>         0.3650
     75 H39         1.8026    1.4681   -6.0471 H         1 <0>         0.4072
     76 H40         0.2272    2.5053   -8.1492 H         1 <0>         0.0789
     77 H41        -0.0936    3.4622   -6.6830 H         1 <0>         0.0784
     78 H42         2.3328    3.9160   -6.4483 H         1 <0>         0.0756
     79 H43         2.6536    2.9591   -7.9145 H         1 <0>         0.0757
     80 H44         0.7574    4.9532   -8.5504 H         1 <0>         0.4046
     81 H45         1.3228    6.8577   -9.6697 H         1 <0>         0.0774
     82 H46         2.6516    7.7281   -8.8665 H         1 <0>         0.0990
     83 H47         2.9724    6.7712  -10.3327 H         1 <0>         0.0991
     84 H48        -2.9301   -2.2622   -2.4300 H         1 <0>         0.4299
@<TRIPOS>BOND
     1    1    2 1
     2    1   41 1
     3    1   42 1
     4    1   43 1
     5    2    3 1
     6    2    4 1
     7    2   32 1
     8    4    5 1
     9    4   44 1
    10    4   45 1
    11    5    6 1
    12    5    7 1
    13    5   31 1
    14    7    8 1
    15    7    9 1
    16    7   30 1
    17    9   10 1
    18    9   46 1
    19    9   47 1
    20   10   11 1
    21   10   12 1
    22   10   27 1
    23   12   13 1
    24   12   48 1
    25   12   49 1
    26   13   18 ar
    27   13   14 ar
    28   14   15 ar
    29   14   50 1
    30   15   16 ar
    31   15   51 1
    32   16   17 ar
    33   16   25 1
    34   17   18 ar
    35   17   19 1
    36   18   52 1
    37   19   20 1
    38   20   21 1
    39   20   53 1
    40   20   54 1
    41   21   22 1
    42   21   55 1
    43   21   56 1
    44   22   23 1
    45   22   57 1
    46   22   58 1
    47   23   24 1
    48   24   59 1
    49   24   60 1
    50   24   61 1
    51   25   26 1
    52   26   62 1
    53   26   63 1
    54   26   64 1
    55   27   28 1
    56   27   29 1
    57   27   65 1
    58   28   66 1
    59   28   67 1
    60   28   68 1
    61   29   69 1
    62   29   70 1
    63   29   71 1
    64   30   72 1
    65   30   73 1
    66   30   84 1
    67   31   74 1
    68   32   33 2
    69   32   34 am
    70   34   35 1
    71   34   75 1
    72   35   36 1
    73   35   76 1
    74   35   77 1
    75   36   37 1
    76   36   78 1
    77   36   79 1
    78   37   38 am
    79   37   80 1
    80   38   39 2
    81   38   40 1
    82   40   81 1
    83   40   82 1
    84   40   83 1
@<TRIPOS>MOLECULE
CHEMBL418034
   75    79     0     0     0
SMALL
USER_CHARGES

@<TRIPOS>ATOM
      1 C1         -0.0167    1.3781    0.0096 C.ar      1 <0>        -0.1118
      2 C2          1.1709    2.0855    0.0021 C.ar      1 <0>        -0.1228
      3 C3          2.3773    1.4107   -0.0130 C.ar      1 <0>        -0.0991
      4 C4          2.3960    0.0285   -0.0201 C.ar      1 <0>        -0.0954
      5 C5          1.2084   -0.6789   -0.0117 C.ar      1 <0>        -0.0990
      6 C6          0.0021   -0.0041    0.0020 C.ar      1 <0>        -0.1227
      7 C7          3.7112   -0.7071   -0.0376 C.3       1 <0>         0.1047
      8 O1          4.1410   -0.9464    1.3041 O.3       1 <0>        -0.3824
      9 C8          5.3853   -1.6423    1.4004 C.3       1 <0>         0.0618
     10 C9          5.7451   -1.8423    2.8740 C.3       1 <0>        -0.1154
     11 C10         7.0774   -2.5874    2.9771 C.3       1 <0>        -0.1170
     12 C11         7.4372   -2.7874    4.4507 C.3       1 <0>         0.0601
     13 O2          8.6815   -3.4834    4.5471 O.3       1 <0>        -0.3124
     14 C12         9.1480   -3.7432    5.7968 C.ar      1 <0>         0.1455
     15 C13         8.4201   -3.3417    6.9075 C.ar      1 <0>        -0.2037
     16 C14         8.8962   -3.6075    8.1768 C.ar      1 <0>        -0.0555
     17 C15        10.0973   -4.2726    8.3407 C.ar      1 <0>        -0.1282
     18 C16        10.8248   -4.6733    7.2354 C.ar      1 <0>        -0.0784
     19 C17        10.3500   -4.4154    5.9639 C.ar      1 <0>        -0.1497
     20 C18        10.6145   -4.5607    9.7266 C.3       1 <0>        -0.0474
     21 H1          9.9129   -4.1733   10.4653 H         1 <0>         0.1033
     22 C19        10.7694   -6.0730    9.9112 C.3       1 <0>        -0.1394
     23 C20        11.3694   -6.3542   11.2905 C.3       1 <0>        -0.0100
     24 N1         12.6838   -5.7096   11.3969 N.4       1 <0>        -0.4994
     25 C21        12.5342   -4.2531   11.2926 C.3       1 <0>        -0.0392
     26 C22        11.9782   -3.8895    9.9140 C.3       1 <0>         0.0779
     27 H2         12.6646   -4.2380    9.1424 H         1 <0>         0.0856
     28 O3         11.8295   -2.4716    9.8166 O.3       1 <0>        -0.3426
     29 C23        12.9836   -1.7998    9.3077 C.3       1 <0>         0.1003
     30 C24        12.7166   -0.3178    9.2480 C.ar      1 <0>        -0.0981
     31 C25        12.1631    0.2340    8.0940 C.ar      1 <0>        -0.0999
     32 C26        11.9099    1.5684    8.0072 C.ar      1 <0>        -0.1002
     33 C27        12.2094    2.4052    9.0958 C.ar      1 <0>        -0.0433
     34 C28        11.9617    3.7876    9.0436 C.ar      1 <0>        -0.1084
     35 C29        12.2642    4.5669   10.1175 C.ar      1 <0>        -0.1071
     36 C30        12.8174    4.0150   11.2716 C.ar      1 <0>        -0.1108
     37 C31        13.0710    2.6807   11.3582 C.ar      1 <0>        -0.1074
     38 C32        12.7718    1.8440   10.2694 C.ar      1 <0>        -0.0570
     39 C33        13.0144    0.4607   10.3237 C.ar      1 <0>        -0.0773
     40 H3         -0.9591    1.9053    0.0259 H         1 <0>         0.1245
     41 H4          1.1563    3.1654    0.0076 H         1 <0>         0.1250
     42 H5          3.3051    1.9634   -0.0196 H         1 <0>         0.1223
     43 H6          1.2231   -1.7588   -0.0176 H         1 <0>         0.1224
     44 H7         -0.9258   -0.5567    0.0082 H         1 <0>         0.1250
     45 H8          3.5884   -1.6586   -0.5549 H         1 <0>         0.0593
     46 H9          4.4573   -0.1052   -0.5563 H         1 <0>         0.0592
     47 H10         5.2973   -2.6133    0.9129 H         1 <0>         0.0521
     48 H11         6.1662   -1.0598    0.9116 H         1 <0>         0.0520
     49 H12         5.8332   -0.8714    3.3615 H         1 <0>         0.0753
     50 H13         4.9642   -2.4248    3.3629 H         1 <0>         0.0755
     51 H14         6.9894   -3.5584    2.4896 H         1 <0>         0.0785
     52 H15         7.8583   -2.0049    2.4883 H         1 <0>         0.0783
     53 H16         7.5252   -1.8165    4.9382 H         1 <0>         0.0665
     54 H17         6.6563   -3.3699    4.9396 H         1 <0>         0.0666
     55 H18         7.4823   -2.8216    6.7800 H         1 <0>         0.1320
     56 H19         8.3300   -3.2952    9.0418 H         1 <0>         0.1256
     57 H20        11.7628   -5.1923    7.3660 H         1 <0>         0.1211
     58 H21        10.9165   -4.7325    5.1008 H         1 <0>         0.1335
     59 H22         9.7928   -6.5510    9.8348 H         1 <0>         0.1223
     60 H23        11.4301   -6.4681    9.1394 H         1 <0>         0.0930
     61 H24        10.7079   -5.9589   12.0614 H         1 <0>         0.1342
     62 H25        11.4809   -7.4301   11.4253 H         1 <0>         0.1389
     63 H26        13.0997   -5.9411   12.2866 H         1 <0>         0.4352
     64 H27        11.8479   -3.9027   12.0634 H         1 <0>         0.1410
     65 H28        13.5056   -3.7779   11.4289 H         1 <0>         0.1339
     66 H29        13.8332   -1.9898    9.9634 H         1 <0>         0.0605
     67 H30        13.2072   -2.1693    8.3069 H         1 <0>         0.0685
     68 H31        11.9320   -0.4068    7.2559 H         1 <0>         0.1225
     69 H32        11.4815    1.9821    7.1063 H         1 <0>         0.1309
     70 H33        11.5337    4.2292    8.1558 H         1 <0>         0.1306
     71 H34        12.0732    5.6290   10.0747 H         1 <0>         0.1281
     72 H35        13.0486    4.6558   12.1097 H         1 <0>         0.1274
     73 H36        13.5003    2.2670   12.2588 H         1 <0>         0.1276
     74 H37        13.4386    0.0185   11.2131 H         1 <0>         0.1250
     75 H38        13.2804   -6.0396   10.6530 H         1 <0>         0.4277
@<TRIPOS>BOND
     1    1    6 ar
     2    1    2 ar
     3    1   40 1
     4    2    3 ar
     5    2   41 1
     6    3    4 ar
     7    3   42 1
     8    4    5 ar
     9    4    7 1
    10    5    6 ar
    11    5   43 1
    12    6   44 1
    13    7    8 1
    14    7   45 1
    15    7   46 1
    16    8    9 1
    17    9   10 1
    18    9   47 1
    19    9   48 1
    20   10   11 1
    21   10   49 1
    22   10   50 1
    23   11   12 1
    24   11   51 1
    25   11   52 1
    26   12   13 1
    27   12   53 1
    28   12   54 1
    29   13   14 1
    30   14   19 ar
    31   14   15 ar
    32   15   16 ar
    33   15   55 1
    34   16   17 ar
    35   16   56 1
    36   17   18 ar
    37   17   20 1
    38   18   19 ar
    39   18   57 1
    40   19   58 1
    41   20   21 1
    42   20   26 1
    43   20   22 1
    44   22   23 1
    45   22   59 1
    46   22   60 1
    47   23   24 1
    48   23   61 1
    49   23   62 1
    50   24   25 1
    51   24   63 1
    52   24   75 1
    53   25   26 1
    54   25   64 1
    55   25   65 1
    56   26   27 1
    57   26   28 1
    58   28   29 1
    59   29   30 1
    60   29   66 1
    61   29   67 1
    62   30   39 ar
    63   30   31 ar
    64   31   32 ar
    65   31   68 1
    66   32   33 ar
    67   32   69 1
    68   33   38 ar
    69   33   34 ar
    70   34   35 ar
    71   34   70 1
    72   35   36 ar
    73   35   71 1
    74   36   37 ar
    75   36   72 1
    76   37   38 ar
    77   37   73 1
    78   38   39 ar
    79   39   74 1
@<TRIPOS>MOLECULE
CHEMBL557977
   86    87     0     0     0
SMALL
USER_CHARGES

@<TRIPOS>ATOM
      1 C1          1.1934   -1.3039   -5.8879 C.3       1 <0>        -0.1513
      2 C2          0.1772   -0.4056   -5.1799 C.3       1 <0>        -0.1072
      3 H1          0.5804   -0.0886   -4.2181 H         1 <0>         0.1114
      4 C3         -1.1221   -1.1823   -4.9572 C.3       1 <0>        -0.1514
      5 C4         -2.0751   -0.3471   -4.0998 C.3       1 <0>         0.0839
      6 H2         -2.2122    0.6324   -4.5581 H         1 <0>         0.1598
      7 C5         -3.4266   -1.0572   -4.0002 C.3       1 <0>        -0.0090
      8 H3         -3.8476   -1.1787   -4.9982 H         1 <0>         0.1563
      9 C6         -4.3796   -0.2220   -3.1429 C.3       1 <0>        -0.1421
     10 C7         -5.7621   -0.8773   -3.1310 C.3       1 <0>        -0.0874
     11 H4         -5.6687   -1.9170   -2.8174 H         1 <0>         0.0656
     12 C8         -6.3654   -0.8206   -4.5359 C.3       1 <0>        -0.0820
     13 C9         -7.6616   -1.5891   -4.5574 C.ar      1 <0>        -0.0878
     14 C10        -7.6478   -2.9598   -4.7367 C.ar      1 <0>        -0.1204
     15 C11        -8.8342   -3.6693   -4.7572 C.ar      1 <0>        -0.1701
     16 C12       -10.0405   -3.0066   -4.5972 C.ar      1 <0>         0.1054
     17 C13       -10.0543   -1.6270   -4.4162 C.ar      1 <0>         0.1125
     18 C14        -8.8613   -0.9225   -4.3920 C.ar      1 <0>        -0.1680
     19 O1        -11.2357   -0.9721   -4.2588 O.3       1 <0>        -0.2979
     20 C15       -11.1734    0.4440   -4.0777 C.3       1 <0>         0.0644
     21 C16       -12.5897    1.0007   -3.9188 C.3       1 <0>        -0.1219
     22 C17       -12.5230    2.5169   -3.7249 C.3       1 <0>         0.0663
     23 O2        -13.8457    3.0368   -3.5765 O.3       1 <0>        -0.3885
     24 C18       -13.8961    4.4525   -3.3886 C.3       1 <0>         0.0308
     25 O3        -11.2085   -3.7030   -4.6175 O.3       1 <0>        -0.3029
     26 C19       -11.1179   -5.1163   -4.8080 C.3       1 <0>         0.0251
     27 C20        -6.6724   -0.1298   -2.1546 C.3       1 <0>        -0.0918
     28 C21        -6.1161   -0.2623   -0.7354 C.3       1 <0>        -0.1549
     29 C22        -6.7322    1.3488   -2.5430 C.3       1 <0>        -0.1589
     30 N1         -3.2418   -2.3772   -3.3827 N.4       1 <0>        -0.6416
     31 O4         -1.5231   -0.1878   -2.7914 O.3       1 <0>        -0.5349
     32 C23        -0.1016    0.8060   -6.0316 C.2       1 <0>         0.5180
     33 O5         -1.2284    1.0265   -6.4221 O.2       1 <0>        -0.5453
     34 N2          0.9014    1.6445   -6.3594 N.am      1 <0>        -0.7234
     35 C24         0.6304    2.8223   -7.1874 C.3       1 <0>         0.1266
     36 C25         1.9296    3.5990   -7.4101 C.3       1 <0>        -0.0799
     37 C26         1.6509    4.8106   -8.2618 C.ar      1 <0>         0.1237
     38 C27         2.0181    6.0636   -7.8082 C.ar      1 <0>        -0.1664
     39 C28         1.7571    7.1716   -8.5994 C.ar      1 <0>        -0.0708
     40 C29         1.1338    6.9770   -9.8228 C.ar      1 <0>        -0.1712
     41 C30         0.7958    5.6943  -10.2098 C.ar      1 <0>         0.1048
     42 N3          1.0644    4.6626   -9.4334 N.ar      1 <0>        -0.4821
     43 H5          2.0875   -0.7262   -6.1226 H         1 <0>         0.0695
     44 H6          1.4593   -2.1359   -5.2358 H         1 <0>         0.0715
     45 H7          0.7576   -1.6894   -6.8095 H         1 <0>         0.0661
     46 H8         -1.5889   -1.3929   -5.9194 H         1 <0>         0.1005
     47 H9         -0.9018   -2.1201   -4.4472 H         1 <0>         0.0716
     48 H10        -3.9961   -0.1644   -2.1242 H         1 <0>         0.1020
     49 H11        -4.4571    0.7824   -3.5592 H         1 <0>         0.1196
     50 H12        -6.5540    0.2177   -4.8088 H         1 <0>         0.0875
     51 H13        -5.6690   -1.2628   -5.2485 H         1 <0>         0.0703
     52 H14        -6.7082   -3.4775   -4.8615 H         1 <0>         0.1174
     53 H15        -8.8207   -4.7400   -4.8981 H         1 <0>         0.1368
     54 H16        -8.8690    0.1478   -4.2479 H         1 <0>         0.1353
     55 H17       -10.5916    0.6708   -3.1843 H         1 <0>         0.0635
     56 H18       -10.6988    0.9008   -4.9461 H         1 <0>         0.0644
     57 H19       -13.1716    0.7739   -4.8122 H         1 <0>         0.0860
     58 H20       -13.0643    0.5439   -3.0504 H         1 <0>         0.0855
     59 H21       -11.9411    2.7437   -2.8315 H         1 <0>         0.0514
     60 H22       -12.0483    2.9737   -4.5933 H         1 <0>         0.0521
     61 H23       -14.9341    4.7684   -3.2842 H         1 <0>         0.0911
     62 H24       -13.3427    4.7194   -2.4882 H         1 <0>         0.0431
     63 H25       -13.4500    4.9495   -4.2500 H         1 <0>         0.0435
     64 H26       -12.1186   -5.5484   -4.8039 H         1 <0>         0.1055
     65 H27       -10.6365   -5.3240   -5.7636 H         1 <0>         0.0564
     66 H28       -10.5296   -5.5546   -4.0019 H         1 <0>         0.0555
     67 H29        -7.6748   -0.5564   -2.1932 H         1 <0>         0.0846
     68 H30        -6.8178    0.1788   -0.0275 H         1 <0>         0.0633
     69 H31        -5.9746   -1.3165   -0.4976 H         1 <0>         0.0526
     70 H32        -5.1598    0.2565   -0.6702 H         1 <0>         0.0574
     71 H33        -7.2015    1.4487   -3.5217 H         1 <0>         0.0588
     72 H34        -7.3160    1.8957   -1.8026 H         1 <0>         0.0619
     73 H35        -5.7216    1.7555   -2.5814 H         1 <0>         0.0598
     74 H36        -2.9301   -2.2622   -2.4300 H         1 <0>         0.4297
     75 H37        -4.1175   -2.8784   -3.3918 H         1 <0>         0.4378
     76 H38        -1.3739   -1.0207   -2.3234 H         1 <0>         0.3642
     77 H39         1.8026    1.4681   -6.0471 H         1 <0>         0.4033
     78 H40         0.2272    2.5053   -8.1492 H         1 <0>         0.0842
     79 H41        -0.0936    3.4622   -6.6830 H         1 <0>         0.0689
     80 H42         2.3328    3.9160   -6.4483 H         1 <0>         0.0868
     81 H43         2.6536    2.9591   -7.9145 H         1 <0>         0.0909
     82 H44         2.5018    6.1780   -6.8494 H         1 <0>         0.1356
     83 H45         2.0324    8.1629   -8.2707 H         1 <0>         0.1380
     84 H46         0.9149    7.8175  -10.4648 H         1 <0>         0.1386
     85 H47         0.3101    5.5343  -11.1611 H         1 <0>         0.1592
     86 H48        -2.5510   -2.8978   -3.9021 H         1 <0>         0.4327
@<TRIPOS>BOND
     1    1    2 1
     2    1   43 1
     3    1   44 1
     4    1   45 1
     5    2    3 1
     6    2    4 1
     7    2   32 1
     8    4    5 1
     9    4   46 1
    10    4   47 1
    11    5    6 1
    12    5    7 1
    13    5   31 1
    14    7    8 1
    15    7    9 1
    16    7   30 1
    17    9   10 1
    18    9   48 1
    19    9   49 1
    20   10   11 1
    21   10   12 1
    22   10   27 1
    23   12   13 1
    24   12   50 1
    25   12   51 1
    26   13   18 ar
    27   13   14 ar
    28   14   15 ar
    29   14   52 1
    30   15   16 ar
    31   15   53 1
    32   16   17 ar
    33   16   25 1
    34   17   18 ar
    35   17   19 1
    36   18   54 1
    37   19   20 1
    38   20   21 1
    39   20   55 1
    40   20   56 1
    41   21   22 1
    42   21   57 1
    43   21   58 1
    44   22   23 1
    45   22   59 1
    46   22   60 1
    47   23   24 1
    48   24   61 1
    49   24   62 1
    50   24   63 1
    51   25   26 1
    52   26   64 1
    53   26   65 1
    54   26   66 1
    55   27   28 1
    56   27   29 1
    57   27   67 1
    58   28   68 1
    59   28   69 1
    60   28   70 1
    61   29   71 1
    62   29   72 1
    63   29   73 1
    64   30   74 1
    65   30   75 1
    66   30   86 1
    67   31   76 1
    68   32   33 2
    69   32   34 am
    70   34   35 1
    71   34   77 1
    72   35   36 1
    73   35   78 1
    74   35   79 1
    75   36   37 1
    76   36   80 1
    77   36   81 1
    78   37   42 ar
    79   37   38 ar
    80   38   39 ar
    81   38   82 1
    82   39   40 ar
    83   39   83 1
    84   40   41 ar
    85   40   84 1
    86   41   42 ar
    87   41   85 1
@<TRIPOS>MOLECULE
CHEMBL127362
   82    84     0     0     0
SMALL
USER_CHARGES

@<TRIPOS>ATOM
      1 C1         -0.5878   -2.8205    2.7363 C.3       1 <0>        -0.1279
      2 C2          0.8739   -2.7527    2.3759 C.ar      1 <0>        -0.0569
      3 C3          1.3953   -3.6235    1.4406 C.ar      1 <0>        -0.1060
      4 C4          2.7351   -3.5650    1.1063 C.ar      1 <0>        -0.1057
      5 C5          3.5666   -2.6291    1.7101 C.ar      1 <0>         0.1365
      6 C6          3.0528   -1.7502    2.6505 C.ar      1 <0>        -0.0739
      7 C7          1.6994   -1.8054    2.9837 C.ar      1 <0>        -0.1132
      8 C8          1.1422   -0.8672    3.9816 C.2       1 <0>         0.5725
      9 O1          1.1011   -1.1818    5.1550 O.2       1 <0>        -0.5281
     10 N1          0.6800    0.3367    3.5901 N.am      1 <0>        -0.7072
     11 C9          0.0227    1.2189    4.5576 C.3       1 <0>         0.1202
     12 C10        -0.8607    2.2229    3.8142 C.3       1 <0>        -0.1316
     13 C11        -2.0358    1.4870    3.1673 C.3       1 <0>        -0.0810
     14 C12        -1.5160    0.5759    2.0534 C.3       1 <0>        -0.1376
     15 C13        -2.6911   -0.1599    1.4064 C.3       1 <0>        -0.1200
     16 C14        -3.6688    0.8589    0.8174 C.3       1 <0>        -0.1199
     17 C15        -4.1886    1.7700    1.9312 C.3       1 <0>        -0.1200
     18 C16        -3.0135    2.5059    2.5782 C.3       1 <0>        -0.1140
     19 C17         1.0831    1.9717    5.3638 C.3       1 <0>         0.0649
     20 C18         0.4017    2.7980    6.4564 C.3       1 <0>         0.0767
     21 C19         1.4620    3.5507    7.2626 C.3       1 <0>        -0.1428
     22 C20         0.7768    4.4306    8.3101 C.3       1 <0>        -0.0946
     23 C21         1.8368    5.0873    9.1967 C.3       1 <0>        -0.1488
     24 C22        -0.0436    5.5145    7.6080 C.3       1 <0>        -0.1490
     25 O2         -0.3291    1.9294    7.3245 O.3       1 <0>        -0.5515
     26 O3          1.8138    2.8403    4.4957 O.3       1 <0>        -0.5486
     27 C23         3.9523   -0.7348    3.3071 C.3       1 <0>        -0.1212
     28 N2          4.9227   -2.5746    1.3687 N.am      1 <0>        -0.6620
     29 C24         5.5487   -3.6791    0.9162 C.2       1 <0>         0.5347
     30 O4          4.9190   -4.6982    0.7266 O.2       1 <0>        -0.4936
     31 C25         7.0309   -3.6478    0.6458 C.3       1 <0>        -0.1551
     32 S1          7.5716   -5.2741    0.0514 S.3       1 <0>        -0.0283
     33 C26         9.3020   -5.0767   -0.2156 C.ar      1 <0>        -0.1010
     34 C27         9.9121   -3.8556    0.0450 C.ar      1 <0>        -0.1376
     35 C28        11.2684   -3.7045   -0.1654 C.ar      1 <0>        -0.0995
     36 C29        12.0196   -4.7666   -0.6349 C.ar      1 <0>        -0.1242
     37 C30        11.4157   -5.9832   -0.8958 C.ar      1 <0>        -0.0983
     38 C31        10.0610   -6.1434   -0.6818 C.ar      1 <0>        -0.0977
     39 H1         -1.1473   -2.1180    2.1185 H         1 <0>         0.0797
     40 H2         -0.9581   -3.8310    2.5636 H         1 <0>         0.0739
     41 H3         -0.7153   -2.5615    3.7873 H         1 <0>         0.0697
     42 H4          0.7542   -4.3533    0.9686 H         1 <0>         0.1334
     43 H5          3.1373   -4.2490    0.3737 H         1 <0>         0.1569
     44 H6          0.7825    0.6191    2.6678 H         1 <0>         0.4050
     45 H7         -0.5923    0.6238    5.2326 H         1 <0>         0.1047
     46 H8         -1.2393    2.9644    4.5178 H         1 <0>         0.0840
     47 H9         -0.2743    2.7208    3.0420 H         1 <0>         0.0714
     48 H10        -2.5467    0.8861    3.9195 H         1 <0>         0.0730
     49 H11        -1.0051    1.1769    1.3012 H         1 <0>         0.0591
     50 H12        -0.8195   -0.1499    2.4731 H         1 <0>         0.0830
     51 H13        -2.3208   -0.8090    0.6129 H         1 <0>         0.0610
     52 H14        -3.2020   -0.7609    2.1587 H         1 <0>         0.0612
     53 H15        -3.1579    1.4599    0.0651 H         1 <0>         0.0601
     54 H16        -4.5060    0.3347    0.3565 H         1 <0>         0.0596
     55 H17        -4.8851    2.4959    1.5116 H         1 <0>         0.0607
     56 H18        -4.6995    1.1691    2.6835 H         1 <0>         0.0612
     57 H19        -3.3838    3.1550    3.3717 H         1 <0>         0.0612
     58 H20        -2.5026    3.1068    1.8259 H         1 <0>         0.0613
     59 H21         1.7666    1.2568    5.8219 H         1 <0>         0.1057
     60 H22        -0.2818    3.5129    5.9983 H         1 <0>         0.1038
     61 H23         2.1157    2.8348    7.7609 H         1 <0>         0.0645
     62 H24         2.0518    4.1761    6.5925 H         1 <0>         0.0786
     63 H25         0.1180    3.8174    8.9250 H         1 <0>         0.0765
     64 H26         2.4405    5.7686    8.5972 H         1 <0>         0.0533
     65 H27         1.3477    5.6433    9.9966 H         1 <0>         0.0546
     66 H28         2.4772    4.3179    9.6280 H         1 <0>         0.0532
     67 H29        -0.7987    5.0466    6.9763 H         1 <0>         0.0544
     68 H30        -0.5317    6.1413    8.3542 H         1 <0>         0.0545
     69 H31         0.6152    6.1277    6.9931 H         1 <0>         0.0530
     70 H32         0.2170    1.2656    7.7675 H         1 <0>         0.3786
     71 H33         1.2677    3.5041    4.0527 H         1 <0>         0.3712
     72 H34         3.9542    0.1829    2.7191 H         1 <0>         0.0782
     73 H35         3.5871   -0.5218    4.3118 H         1 <0>         0.0745
     74 H36         4.9660   -1.1312    3.3654 H         1 <0>         0.0680
     75 H37         5.4122   -1.7419    1.4579 H         1 <0>         0.4136
     76 H38         7.2462   -2.8941   -0.1116 H         1 <0>         0.1219
     77 H39         7.5627   -3.4016    1.5648 H         1 <0>         0.1218
     78 H40         9.3261   -3.0256    0.4113 H         1 <0>         0.1202
     79 H41        11.7432   -2.7557    0.0365 H         1 <0>         0.1261
     80 H42        13.0802   -4.6456   -0.7986 H         1 <0>         0.1262
     81 H43        12.0054   -6.8103   -1.2626 H         1 <0>         0.1297
     82 H44         9.5911   -7.0952   -0.8808 H         1 <0>         0.1294
@<TRIPOS>BOND
     1    1    2 1
     2    1   39 1
     3    1   40 1
     4    1   41 1
     5    2    7 ar
     6    2    3 ar
     7    3    4 ar
     8    3   42 1
     9    4    5 ar
    10    4   43 1
    11    5    6 ar
    12    5   28 1
    13    6    7 ar
    14    6   27 1
    15    7    8 1
    16    8    9 2
    17    8   10 am
    18   10   11 1
    19   10   44 1
    20   11   12 1
    21   11   19 1
    22   11   45 1
    23   12   13 1
    24   12   46 1
    25   12   47 1
    26   13   18 1
    27   13   14 1
    28   13   48 1
    29   14   15 1
    30   14   49 1
    31   14   50 1
    32   15   16 1
    33   15   51 1
    34   15   52 1
    35   16   17 1
    36   16   53 1
    37   16   54 1
    38   17   18 1
    39   17   55 1
    40   17   56 1
    41   18   57 1
    42   18   58 1
    43   19   20 1
    44   19   26 1
    45   19   59 1
    46   20   21 1
    47   20   25 1
    48   20   60 1
    49   21   22 1
    50   21   61 1
    51   21   62 1
    52   22   23 1
    53   22   24 1
    54   22   63 1
    55   23   64 1
    56   23   65 1
    57   23   66 1
    58   24   67 1
    59   24   68 1
    60   24   69 1
    61   25   70 1
    62   26   71 1
    63   27   72 1
    64   27   73 1
    65   27   74 1
    66   28   29 am
    67   28   75 1
    68   29   30 2
    69   29   31 1
    70   31   32 1
    71   31   76 1
    72   31   77 1
    73   32   33 1
    74   33   38 ar
    75   33   34 ar
    76   34   35 ar
    77   34   78 1
    78   35   36 ar
    79   35   79 1
    80   36   37 ar
    81   36   80 1
    82   37   38 ar
    83   37   81 1
    84   38   82 1
@<TRIPOS>MOLECULE
CHEMBL127362__1
   82    84     0     0     0
SMALL
USER_CHARGES

@<TRIPOS>ATOM
      1 C1         -1.5189   -2.5880    2.8753 C.3       1 <0>        -0.1263
      2 C2         -0.1684   -2.4553    2.2199 C.ar      1 <0>        -0.0556
      3 C3          0.1121   -3.1618    1.0679 C.ar      1 <0>        -0.1062
      4 C4          1.3490   -3.0432    0.4628 C.ar      1 <0>        -0.1035
      5 C5          2.3190   -2.2120    1.0106 C.ar      1 <0>         0.1362
      6 C6          2.0473   -1.4983    2.1672 C.ar      1 <0>        -0.0741
      7 C7          0.7969   -1.6135    2.7747 C.ar      1 <0>        -0.1133
      8 C8          0.4970   -0.8508    4.0054 C.2       1 <0>         0.5713
      9 O1          0.6602   -1.3656    5.0944 O.2       1 <0>        -0.5291
     10 N1          0.0428    0.4152    3.9197 N.am      1 <0>        -0.7079
     11 C9         -0.3776    1.1261    5.1298 C.3       1 <0>         0.1242
     12 C10        -1.3095    2.2776    4.7470 C.3       1 <0>        -0.1557
     13 C11        -2.6217    1.7117    4.2005 C.3       1 <0>        -0.0794
     14 C12        -2.3596    1.0168    2.8629 C.3       1 <0>        -0.1372
     15 C13        -3.6719    0.4509    2.3164 C.3       1 <0>        -0.1197
     16 C14        -4.6726    1.5900    2.1119 C.3       1 <0>        -0.1197
     17 C15        -4.9347    2.2849    3.4495 C.3       1 <0>        -0.1203
     18 C16        -3.6224    2.8508    3.9960 C.3       1 <0>        -0.1122
     19 C17         0.8533    1.6831    5.8477 C.3       1 <0>         0.0645
     20 C18         0.4369    2.2566    7.2036 C.3       1 <0>         0.0760
     21 C19         1.6801    2.7231    7.9636 C.3       1 <0>        -0.1397
     22 C20         1.2781    3.1809    9.3671 C.3       1 <0>        -0.0938
     23 C21         0.7436    1.9863   10.1596 C.3       1 <0>        -0.1515
     24 C22         2.4986    3.7629   10.0829 C.3       1 <0>        -0.1488
     25 O2         -0.4421    3.3652    7.0023 O.3       1 <0>        -0.5462
     26 O3          1.4409    2.7159    5.0538 O.3       1 <0>        -0.5504
     27 C23         3.0974   -0.5967    2.7635 C.3       1 <0>        -0.1210
     28 N2          3.5703   -2.0961    0.3945 N.am      1 <0>        -0.6625
     29 C24         4.0613   -3.1198   -0.3317 C.2       1 <0>         0.5345
     30 O4          3.3857   -4.1096   -0.5187 O.2       1 <0>        -0.4938
     31 C25         5.4499   -3.0348   -0.9111 C.3       1 <0>        -0.1550
     32 S1          5.8167   -4.5565   -1.8279 S.3       1 <0>        -0.0285
     33 C26         7.4515   -4.3047   -2.4352 C.ar      1 <0>        -0.1010
     34 C27         8.1274   -3.1250   -2.1474 C.ar      1 <0>        -0.1377
     35 C28         9.4084   -2.9312   -2.6250 C.ar      1 <0>        -0.0995
     36 C29        10.0188   -3.9093   -3.3889 C.ar      1 <0>        -0.1242
     37 C30         9.3490   -5.0843   -3.6777 C.ar      1 <0>        -0.0983
     38 C31         8.0702   -5.2877   -3.1983 C.ar      1 <0>        -0.0978
     39 H1         -2.1785   -1.8004    2.5109 H         1 <0>         0.0781
     40 H2         -1.9464   -3.5609    2.6329 H         1 <0>         0.0738
     41 H3         -1.4087   -2.4986    3.9560 H         1 <0>         0.0700
     42 H4         -0.6374   -3.8098    0.6380 H         1 <0>         0.1335
     43 H5          1.5627   -3.5985   -0.4385 H         1 <0>         0.1547
     44 H6         -0.0058    0.8557    3.0569 H         1 <0>         0.4053
     45 H7         -0.9035    0.4377    5.7913 H         1 <0>         0.0933
     46 H8         -1.5151    2.8866    5.6273 H         1 <0>         0.1251
     47 H9         -0.8329    2.8922    3.9833 H         1 <0>         0.0652
     48 H10        -3.0304    0.9920    4.9099 H         1 <0>         0.0689
     49 H11        -1.9509    1.7365    2.1535 H         1 <0>         0.0579
     50 H12        -1.6467    0.2053    3.0086 H         1 <0>         0.0807
     51 H13        -3.4851   -0.0442    1.3634 H         1 <0>         0.0596
     52 H14        -4.0805   -0.2688    3.0257 H         1 <0>         0.0601
     53 H15        -4.2639    2.3097    1.4025 H         1 <0>         0.0596
     54 H16        -5.6075    1.1869    1.7226 H         1 <0>         0.0588
     55 H17        -5.6476    3.0965    3.3038 H         1 <0>         0.0599
     56 H18        -5.3434    1.5653    4.1589 H         1 <0>         0.0602
     57 H19        -3.8092    3.3459    4.9490 H         1 <0>         0.0626
     58 H20        -3.2138    3.5705    3.2867 H         1 <0>         0.0599
     59 H21         1.5787    0.8837    5.9986 H         1 <0>         0.1122
     60 H22        -0.0751    1.4874    7.7817 H         1 <0>         0.1117
     61 H23         2.3898    1.8993    8.0396 H         1 <0>         0.0715
     62 H24         2.1426    3.5529    7.4293 H         1 <0>         0.0716
     63 H25         0.5028    3.9435    9.2923 H         1 <0>         0.0764
     64 H26         1.5188    1.2238   10.2344 H         1 <0>         0.0534
     65 H27         0.4571    2.3125   11.1595 H         1 <0>         0.0547
     66 H28        -0.1260    1.5717    9.6497 H         1 <0>         0.0560
     67 H29         2.8794    4.6140    9.5182 H         1 <0>         0.0531
     68 H30         2.2122    4.0891   11.0827 H         1 <0>         0.0549
     69 H31         3.2738    3.0004   10.1576 H         1 <0>         0.0532
     70 H32        -0.0519    4.0893    6.4939 H         1 <0>         0.3705
     71 H33         0.8507    3.4616    4.8791 H         1 <0>         0.3675
     72 H34         2.9996    0.4036    2.3416 H         1 <0>         0.0780
     73 H35         2.9647   -0.5498    3.8444 H         1 <0>         0.0743
     74 H36         4.0874   -0.9919    2.5357 H         1 <0>         0.0683
     75 H37         4.0841   -1.2789    0.4901 H         1 <0>         0.4134
     76 H38         5.5104   -2.1807   -1.5856 H         1 <0>         0.1218
     77 H39         6.1732   -2.9131   -0.1049 H         1 <0>         0.1218
     78 H40         7.6512   -2.3607   -1.5512 H         1 <0>         0.1202
     79 H41         9.9342   -2.0145   -2.4020 H         1 <0>         0.1261
     80 H42        11.0208   -3.7549   -3.7611 H         1 <0>         0.1262
     81 H43         9.8287   -5.8457   -4.2748 H         1 <0>         0.1297
     82 H44         7.5497   -6.2077   -3.4198 H         1 <0>         0.1294
@<TRIPOS>BOND
     1    1    2 1
     2    1   39 1
     3    1   40 1
     4    1   41 1
     5    2    7 ar
     6    2    3 ar
     7    3    4 ar
     8    3   42 1
     9    4    5 ar
    10    4   43 1
    11    5    6 ar
    12    5   28 1
    13    6    7 ar
    14    6   27 1
    15    7    8 1
    16    8    9 2
    17    8   10 am
    18   10   11 1
    19   10   44 1
    20   11   12 1
    21   11   19 1
    22   11   45 1
    23   12   13 1
    24   12   46 1
    25   12   47 1
    26   13   18 1
    27   13   14 1
    28   13   48 1
    29   14   15 1
    30   14   49 1
    31   14   50 1
    32   15   16 1
    33   15   51 1
    34   15   52 1
    35   16   17 1
    36   16   53 1
    37   16   54 1
    38   17   18 1
    39   17   55 1
    40   17   56 1
    41   18   57 1
    42   18   58 1
    43   19   20 1
    44   19   26 1
    45   19   59 1
    46   20   21 1
    47   20   25 1
    48   20   60 1
    49   21   22 1
    50   21   61 1
    51   21   62 1
    52   22   23 1
    53   22   24 1
    54   22   63 1
    55   23   64 1
    56   23   65 1
    57   23   66 1
    58   24   67 1
    59   24   68 1
    60   24   69 1
    61   25   70 1
    62   26   71 1
    63   27   72 1
    64   27   73 1
    65   27   74 1
    66   28   29 am
    67   28   75 1
    68   29   30 2
    69   29   31 1
    70   31   32 1
    71   31   76 1
    72   31   77 1
    73   32   33 1
    74   33   38 ar
    75   33   34 ar
    76   34   35 ar
    77   34   78 1
    78   35   36 ar
    79   35   79 1
    80   36   37 ar
    81   36   80 1
    82   37   38 ar
    83   37   81 1
    84   38   82 1
@<TRIPOS>MOLECULE
CHEMBL127362__2
   82    84     0     0     0
SMALL
USER_CHARGES

@<TRIPOS>ATOM
      1 C1         -1.0339    3.0684   -0.2289 C.3       1 <0>        -0.1198
      2 C2         -1.0080    1.6060   -0.5920 C.ar      1 <0>        -0.0615
      3 C3         -1.3034    1.2095   -1.8806 C.ar      1 <0>        -0.1082
      4 C4         -1.2807   -0.1304   -2.2188 C.ar      1 <0>        -0.1032
      5 C5         -0.9606   -1.0877   -1.2633 C.ar      1 <0>         0.1340
      6 C6         -0.6624   -0.7000    0.0335 C.ar      1 <0>        -0.0650
      7 C7         -0.6798    0.6528    0.3734 C.ar      1 <0>        -0.1107
      8 C8         -0.3570    1.0752    1.7531 C.2       1 <0>         0.5807
      9 O1         -1.2234    1.0801    2.6056 O.2       1 <0>        -0.5310
     10 N1          0.8979    1.4548    2.0655 N.am      1 <0>        -0.7015
     11 C9          1.1949    1.9728    3.4033 C.3       1 <0>         0.1159
     12 C10         0.9797    3.4875    3.4231 C.3       1 <0>        -0.1215
     13 C11         1.1562    4.0091    4.8505 C.3       1 <0>        -0.0817
     14 C12         0.0500    3.4407    5.7417 C.3       1 <0>        -0.1168
     15 C13         0.2266    3.9624    7.1691 C.3       1 <0>        -0.1199
     16 C14         0.1456    5.4902    7.1675 C.3       1 <0>        -0.1209
     17 C15         1.2519    6.0585    6.2763 C.3       1 <0>        -0.1194
     18 C16         1.0753    5.5369    4.8489 C.3       1 <0>        -0.1122
     19 C17         2.6494    1.6597    3.7601 C.3       1 <0>         0.0662
     20 C18         2.8969    0.1564    3.6191 C.3       1 <0>         0.0755
     21 C19         4.3792   -0.1407    3.8543 C.3       1 <0>        -0.1400
     22 C20         4.6047   -1.6539    3.8389 C.3       1 <0>        -0.0927
     23 C21         6.1032   -1.9472    3.9367 C.3       1 <0>        -0.1490
     24 C22         3.8820   -2.2893    5.0283 C.3       1 <0>        -0.1507
     25 O2          2.5292   -0.2656    2.3043 O.3       1 <0>        -0.5439
     26 O3          3.5200    2.3705    2.8775 O.3       1 <0>        -0.5436
     27 C23        -0.3156   -1.7359    1.0715 C.3       1 <0>        -0.1195
     28 N2         -0.9399   -2.4433   -1.6106 N.am      1 <0>        -0.6622
     29 C24        -1.7369   -2.8984   -2.5975 C.2       1 <0>         0.5343
     30 O4         -2.4109   -2.1211   -3.2398 O.2       1 <0>        -0.4946
     31 C25        -1.7908   -4.3732   -2.9030 C.3       1 <0>        -0.1548
     32 S1         -2.9450   -4.6654   -4.2716 S.3       1 <0>        -0.0286
     33 C26        -2.8964   -6.4112   -4.5047 C.ar      1 <0>        -0.1010
     34 C27        -2.0846   -7.1994   -3.6978 C.ar      1 <0>        -0.1376
     35 C28        -2.0490   -8.5672   -3.8835 C.ar      1 <0>        -0.0995
     36 C29        -2.8200   -9.1530   -4.8710 C.ar      1 <0>        -0.1243
     37 C30        -3.6287   -8.3718   -5.6762 C.ar      1 <0>        -0.0984
     38 C31        -3.6741   -7.0040   -5.4923 C.ar      1 <0>        -0.0978
     39 H1         -0.0276    3.4800   -0.3072 H         1 <0>         0.0738
     40 H2         -1.6980    3.6002   -0.9102 H         1 <0>         0.0730
     41 H3         -1.3947    3.1826    0.7933 H         1 <0>         0.0677
     42 H4         -1.5535    1.9488   -2.6272 H         1 <0>         0.1322
     43 H5         -1.5127   -0.4346   -3.2287 H         1 <0>         0.1524
     44 H6          1.6044    1.3850    1.4045 H         1 <0>         0.3940
     45 H7          0.5331    1.5022    4.1303 H         1 <0>         0.1025
     46 H8          1.7078    3.9665    2.7685 H         1 <0>         0.0730
     47 H9         -0.0276    3.7159    3.0748 H         1 <0>         0.0667
     48 H10         2.1278    3.6971    5.2338 H         1 <0>         0.0715
     49 H11        -0.9215    3.7527    5.3584 H         1 <0>         0.0634
     50 H12         0.1076    2.3523    5.7428 H         1 <0>         0.0608
     51 H13        -0.5615    3.5575    7.8040 H         1 <0>         0.0606
     52 H14         1.1981    3.6504    7.5524 H         1 <0>         0.0598
     53 H15        -0.8259    5.8022    6.7842 H         1 <0>         0.0608
     54 H16         0.2714    5.8618    8.1844 H         1 <0>         0.0597
     55 H17         1.1942    7.1470    6.2752 H         1 <0>         0.0604
     56 H18         2.2234    5.7466    6.6596 H         1 <0>         0.0606
     57 H19         1.8634    5.9418    4.2140 H         1 <0>         0.0614
     58 H20         0.1038    5.8489    4.4656 H         1 <0>         0.0606
     59 H21         2.8453    1.9654    4.7878 H         1 <0>         0.1205
     60 H22         2.2976   -0.3809    4.3541 H         1 <0>         0.1098
     61 H23         4.9722    0.3231    3.0660 H         1 <0>         0.0718
     62 H24         4.6816    0.2619    4.8210 H         1 <0>         0.0717
     63 H25         4.2128   -2.0702    2.9109 H         1 <0>         0.0755
     64 H26         6.4777   -1.6072    4.9022 H         1 <0>         0.0534
     65 H27         6.2705   -3.0199    3.8393 H         1 <0>         0.0540
     66 H28         6.6288   -1.4235    3.1382 H         1 <0>         0.0534
     67 H29         2.8145   -2.0804    4.9587 H         1 <0>         0.0552
     68 H30         4.0427   -3.3674    5.0174 H         1 <0>         0.0541
     69 H31         4.2739   -1.8730    5.9563 H         1 <0>         0.0531
     70 H32         3.0235    0.1724    1.5980 H         1 <0>         0.3625
     71 H33         3.4010    2.1481    1.9440 H         1 <0>         0.3652
     72 H34         0.7611   -1.9059    1.0696 H         1 <0>         0.0840
     73 H35        -0.6260   -1.3829    2.0550 H         1 <0>         0.0753
     74 H36        -0.8310   -2.6682    0.8408 H         1 <0>         0.0628
     75 H37        -0.3518   -3.0554   -1.1410 H         1 <0>         0.4134
     76 H38        -0.7974   -4.7223   -3.1847 H         1 <0>         0.1215
     77 H39        -2.1295   -4.9150   -2.0200 H         1 <0>         0.1215
     78 H40        -1.4820   -6.7426   -2.9267 H         1 <0>         0.1202
     79 H41        -1.4181   -9.1803   -3.2570 H         1 <0>         0.1260
     80 H42        -2.7901  -10.2231   -5.0139 H         1 <0>         0.1261
     81 H43        -4.2291   -8.8326   -6.4466 H         1 <0>         0.1296
     82 H44        -4.3098   -6.3951   -6.1180 H         1 <0>         0.1294
@<TRIPOS>BOND
     1    1    2 1
     2    1   39 1
     3    1   40 1
     4    1   41 1
     5    2    7 ar
     6    2    3 ar
     7    3    4 ar
     8    3   42 1
     9    4    5 ar
    10    4   43 1
    11    5    6 ar
    12    5   28 1
    13    6    7 ar
    14    6   27 1
    15    7    8 1
    16    8    9 2
    17    8   10 am
    18   10   11 1
    19   10   44 1
    20   11   12 1
    21   11   19 1
    22   11   45 1
    23   12   13 1
    24   12   46 1
    25   12   47 1
    26   13   18 1
    27   13   14 1
    28   13   48 1
    29   14   15 1
    30   14   49 1
    31   14   50 1
    32   15   16 1
    33   15   51 1
    34   15   52 1
    35   16   17 1
    36   16   53 1
    37   16   54 1
    38   17   18 1
    39   17   55 1
    40   17   56 1
    41   18   57 1
    42   18   58 1
    43   19   20 1
    44   19   26 1
    45   19   59 1
    46   20   21 1
    47   20   25 1
    48   20   60 1
    49   21   22 1
    50   21   61 1
    51   21   62 1
    52   22   23 1
    53   22   24 1
    54   22   63 1
    55   23   64 1
    56   23   65 1
    57   23   66 1
    58   24   67 1
    59   24   68 1
    60   24   69 1
    61   25   70 1
    62   26   71 1
    63   27   72 1
    64   27   73 1
    65   27   74 1
    66   28   29 am
    67   28   75 1
    68   29   30 2
    69   29   31 1
    70   31   32 1
    71   31   76 1
    72   31   77 1
    73   32   33 1
    74   33   38 ar
    75   33   34 ar
    76   34   35 ar
    77   34   78 1
    78   35   36 ar
    79   35   79 1
    80   36   37 ar
    81   36   80 1
    82   37   38 ar
    83   37   81 1
    84   38   82 1
@<TRIPOS>MOLECULE
CHEMBL127362__3
   82    84     0     0     0
SMALL
USER_CHARGES

@<TRIPOS>ATOM
      1 C1         -1.0651    1.5670   -0.5588 C.3       1 <0>        -0.1206
      2 C2         -1.0701    0.0617   -0.4860 C.ar      1 <0>        -0.0591
      3 C3         -1.3357   -0.6830   -1.6173 C.ar      1 <0>        -0.1062
      4 C4         -1.3411   -2.0638   -1.5558 C.ar      1 <0>        -0.1019
      5 C5         -1.0794   -2.7116   -0.3543 C.ar      1 <0>         0.1362
      6 C6         -0.8116   -1.9729    0.7874 C.ar      1 <0>        -0.0709
      7 C7         -0.8005   -0.5794    0.7241 C.ar      1 <0>        -0.1142
      8 C8         -0.5096    0.2159    1.9362 C.2       1 <0>         0.5785
      9 O1         -1.4036    0.4882    2.7135 O.2       1 <0>        -0.5196
     10 N1          0.7468    0.6389    2.1792 N.am      1 <0>        -0.7190
     11 C9          1.0156    1.5196    3.3186 C.3       1 <0>         0.1166
     12 C10         0.7047    2.9663    2.9295 C.3       1 <0>        -0.1222
     13 C11         0.8542    3.8679    4.1566 C.3       1 <0>        -0.0809
     14 C12        -0.1973    3.4868    5.2006 C.3       1 <0>        -0.1168
     15 C13        -0.0477    4.3884    6.4277 C.3       1 <0>        -0.1196
     16 C14        -0.2447    5.8484    6.0148 C.3       1 <0>        -0.1211
     17 C15         0.8068    6.2295    4.9707 C.3       1 <0>        -0.1193
     18 C16         0.6573    5.3279    3.7437 C.3       1 <0>        -0.1125
     19 C17         2.4885    1.4038    3.7164 C.3       1 <0>         0.0680
     20 C18         2.8303   -0.0631    3.9852 C.3       1 <0>         0.0760
     21 C19         4.3032   -0.1789    4.3829 C.3       1 <0>        -0.1448
     22 C20         4.6771   -1.6552    4.5304 C.3       1 <0>        -0.0938
     23 C21         4.5696   -2.3469    3.1699 C.3       1 <0>        -0.1492
     24 C22         6.1123   -1.7685    5.0482 C.3       1 <0>        -0.1490
     25 O2          2.0102   -0.5566    5.0463 O.3       1 <0>        -0.5478
     26 O3          3.3086    1.8973    2.6553 O.3       1 <0>        -0.5421
     27 C23        -0.5281   -2.6727    2.0915 C.3       1 <0>        -0.1228
     28 N2         -1.0870   -4.1100   -0.2972 N.am      1 <0>        -0.6630
     29 C24        -1.8668   -4.8147   -1.1408 C.2       1 <0>         0.5348
     30 O4         -2.4988   -4.2425   -2.0034 O.2       1 <0>        -0.4938
     31 C25        -1.9534   -6.3137   -1.0124 C.3       1 <0>        -0.1551
     32 S1         -3.0740   -6.9656   -2.2812 S.3       1 <0>        -0.0284
     33 C26        -3.0681   -8.7053   -2.0019 C.ar      1 <0>        -0.1010
     34 C27        -2.3036   -9.2432   -0.9735 C.ar      1 <0>        -0.1376
     35 C28        -2.3014  -10.6070   -0.7577 C.ar      1 <0>        -0.0994
     36 C29        -3.0588  -11.4375   -1.5634 C.ar      1 <0>        -0.1242
     37 C30        -3.8205  -10.9059   -2.5881 C.ar      1 <0>        -0.0983
     38 C31        -3.8324   -9.5424   -2.8059 C.ar      1 <0>        -0.0978
     39 H1         -0.0451    1.9200   -0.7110 H         1 <0>         0.0747
     40 H2         -1.6901    1.8926   -1.3903 H         1 <0>         0.0740
     41 H3         -1.4563    1.9771    0.3722 H         1 <0>         0.0683
     42 H4         -1.5404   -0.1852   -2.5536 H         1 <0>         0.1337
     43 H5         -1.5496   -2.6412   -2.4443 H         1 <0>         0.1534
     44 H6          1.4730    0.3601    1.5997 H         1 <0>         0.3935
     45 H7          0.3879    1.2268    4.1603 H         1 <0>         0.1070
     46 H8          1.3980    3.2908    2.1535 H         1 <0>         0.0728
     47 H9         -0.3166    3.0300    2.5541 H         1 <0>         0.0676
     48 H10         1.8502    3.7415    4.5811 H         1 <0>         0.0709
     49 H11        -1.1932    3.6132    4.7761 H         1 <0>         0.0636
     50 H12        -0.0570    2.4467    5.4947 H         1 <0>         0.0616
     51 H13        -0.7968    4.1169    7.1715 H         1 <0>         0.0607
     52 H14         0.9482    4.2620    6.8522 H         1 <0>         0.0594
     53 H15        -1.2406    5.9748    5.5903 H         1 <0>         0.0609
     54 H16        -0.1381    6.4907    6.8890 H         1 <0>         0.0597
     55 H17         0.6665    7.2696    4.6766 H         1 <0>         0.0605
     56 H18         1.8028    6.1031    5.3953 H         1 <0>         0.0605
     57 H19         1.4064    5.5993    2.9999 H         1 <0>         0.0614
     58 H20        -0.3387    5.4542    3.3192 H         1 <0>         0.0607
     59 H21         2.6687    1.9899    4.6175 H         1 <0>         0.1151
     60 H22         2.6502   -0.6492    3.0840 H         1 <0>         0.1000
     61 H23         4.9245    0.2780    3.6127 H         1 <0>         0.0802
     62 H24         4.4648    0.3333    5.3314 H         1 <0>         0.0660
     63 H25         3.9975   -2.1334    5.2358 H         1 <0>         0.0757
     64 H26         5.2491   -1.8687    2.4645 H         1 <0>         0.0539
     65 H27         4.8359   -3.3986    3.2750 H         1 <0>         0.0545
     66 H28         3.5471   -2.2662    2.8011 H         1 <0>         0.0527
     67 H29         6.1889   -1.2757    6.0174 H         1 <0>         0.0535
     68 H30         6.3787   -2.8203    5.1533 H         1 <0>         0.0547
     69 H31         6.7919   -1.2904    4.3428 H         1 <0>         0.0539
     70 H32         2.1186   -0.0807    5.8811 H         1 <0>         0.3749
     71 H33         3.2002    1.4214    1.8205 H         1 <0>         0.3703
     72 H34         0.5427   -2.8561    2.1802 H         1 <0>         0.0753
     73 H35        -0.8592   -2.0461    2.9196 H         1 <0>         0.0792
     74 H36        -1.0627   -3.6222    2.1180 H         1 <0>         0.0684
     75 H37        -0.5309   -4.5720    0.3496 H         1 <0>         0.4134
     76 H38        -0.9623   -6.7476   -1.1453 H         1 <0>         0.1218
     77 H39        -2.3337   -6.5723   -0.0241 H         1 <0>         0.1219
     78 H40        -1.7116   -8.5952   -0.3441 H         1 <0>         0.1201
     79 H41        -1.7072  -11.0257    0.0411 H         1 <0>         0.1261
     80 H42        -3.0552  -12.5039   -1.3923 H         1 <0>         0.1262
     81 H43        -4.4105  -11.5575   -3.2156 H         1 <0>         0.1297
     82 H44        -4.4315   -9.1274   -3.6030 H         1 <0>         0.1294
@<TRIPOS>BOND
     1    1    2 1
     2    1   39 1
     3    1   40 1
     4    1   41 1
     5    2    7 ar
     6    2    3 ar
     7    3    4 ar
     8    3   42 1
     9    4    5 ar
    10    4   43 1
    11    5    6 ar
    12    5   28 1
    13    6    7 ar
    14    6   27 1
    15    7    8 1
    16    8    9 2
    17    8   10 am
    18   10   11 1
    19   10   44 1
    20   11   12 1
    21   11   19 1
    22   11   45 1
    23   12   13 1
    24   12   46 1
    25   12   47 1
    26   13   18 1
    27   13   14 1
    28   13   48 1
    29   14   15 1
    30   14   49 1
    31   14   50 1
    32   15   16 1
    33   15   51 1
    34   15   52 1
    35   16   17 1
    36   16   53 1
    37   16   54 1
    38   17   18 1
    39   17   55 1
    40   17   56 1
    41   18   57 1
    42   18   58 1
    43   19   20 1
    44   19   26 1
    45   19   59 1
    46   20   21 1
    47   20   25 1
    48   20   60 1
    49   21   22 1
    50   21   61 1
    51   21   62 1
    52   22   23 1
    53   22   24 1
    54   22   63 1
    55   23   64 1
    56   23   65 1
    57   23   66 1
    58   24   67 1
    59   24   68 1
    60   24   69 1
    61   25   70 1
    62   26   71 1
    63   27   72 1
    64   27   73 1
    65   27   74 1
    66   28   29 am
    67   28   75 1
    68   29   30 2
    69   29   31 1
    70   31   32 1
    71   31   76 1
    72   31   77 1
    73   32   33 1
    74   33   38 ar
    75   33   34 ar
    76   34   35 ar
    77   34   78 1
    78   35   36 ar
    79   35   79 1
    80   36   37 ar
    81   36   80 1
    82   37   38 ar
    83   37   81 1
    84   38   82 1
@<TRIPOS>MOLECULE
CHEMBL127362__4
   82    84     0     0     0
SMALL
USER_CHARGES

@<TRIPOS>ATOM
      1 C1          0.0613    2.1517    0.4288 C.3       1 <0>        -0.1202
      2 C2         -0.1002    0.6575    0.3188 C.ar      1 <0>        -0.0549
      3 C3         -0.2258    0.0663   -0.9221 C.ar      1 <0>        -0.1079
      4 C4         -0.3736   -1.3037   -1.0283 C.ar      1 <0>        -0.0946
      5 C5         -0.3973   -2.0955    0.1138 C.ar      1 <0>         0.1345
      6 C6         -0.2720   -1.5116    1.3645 C.ar      1 <0>        -0.0692
      7 C7         -0.1170   -0.1294    1.4715 C.ar      1 <0>        -0.1146
      8 C8          0.0234    0.5005    2.8018 C.2       1 <0>         0.5745
      9 O1         -0.9642    0.8681    3.4075 O.2       1 <0>        -0.5055
     10 N1          1.2466    0.6672    3.3427 N.am      1 <0>        -0.7174
     11 C9          1.3857    1.2914    4.6608 C.3       1 <0>         0.1159
     12 C10         1.2102    0.2301    5.7488 C.3       1 <0>        -0.1216
     13 C11        -0.2200   -0.3119    5.7065 C.3       1 <0>        -0.0879
     14 C12        -1.1999    0.8057    6.0694 C.3       1 <0>        -0.1061
     15 C13        -2.6300    0.2638    6.0272 C.3       1 <0>        -0.1127
     16 C14        -2.7706   -0.8833    7.0299 C.3       1 <0>        -0.1208
     17 C15        -1.7907   -2.0009    6.6670 C.3       1 <0>        -0.1168
     18 C16        -0.3606   -1.4589    6.7093 C.3       1 <0>        -0.1150
     19 C17         2.7745    1.9217    4.7826 C.3       1 <0>         0.0680
     20 C18         2.9501    2.9830    3.6946 C.3       1 <0>         0.0766
     21 C19         4.3389    3.6133    3.8163 C.3       1 <0>        -0.1443
     22 C20         4.5447    4.6173    2.6803 C.3       1 <0>        -0.0942
     23 C21         5.8677    5.3573    2.8871 C.3       1 <0>        -0.1490
     24 C22         4.5795    3.8744    1.3432 C.3       1 <0>        -0.1492
     25 O2          1.9526    3.9944    3.8504 O.3       1 <0>        -0.5476
     26 O3          3.7720    0.9103    4.6268 O.3       1 <0>        -0.5436
     27 C23        -0.2979   -2.3677    2.6045 C.3       1 <0>        -0.1279
     28 N2         -0.5482   -3.4823    0.0009 N.am      1 <0>        -0.6651
     29 C24        -1.3120   -3.9992   -0.9819 C.2       1 <0>         0.5345
     30 O4         -1.7998   -3.2691   -1.8185 O.2       1 <0>        -0.4941
     31 C25        -1.5599   -5.4845   -1.0413 C.3       1 <0>        -0.1547
     32 S1         -2.6161   -5.8648   -2.4663 S.3       1 <0>        -0.0287
     33 C26        -2.8106   -7.6146   -2.3977 C.ar      1 <0>        -0.1010
     34 C27        -2.2037   -8.3437   -1.3821 C.ar      1 <0>        -0.1376
     35 C28        -2.3584   -9.7149   -1.3316 C.ar      1 <0>        -0.0995
     36 C29        -3.1162  -10.3628   -2.2902 C.ar      1 <0>        -0.1242
     37 C30        -3.7212   -9.6406   -3.3026 C.ar      1 <0>        -0.0983
     38 C31        -3.5761   -8.2684   -3.3559 C.ar      1 <0>        -0.0978
     39 H1          1.1208    2.4060    0.3977 H         1 <0>         0.0729
     40 H2         -0.4528    2.6349   -0.4022 H         1 <0>         0.0732
     41 H3         -0.3674    2.4952    1.3702 H         1 <0>         0.0720
     42 H4         -0.2088    0.6765   -1.8131 H         1 <0>         0.1332
     43 H5         -0.4714   -1.7606   -2.0020 H         1 <0>         0.1454
     44 H6          2.0347    0.3739    2.8594 H         1 <0>         0.3924
     45 H7          0.6249    2.0628    4.7796 H         1 <0>         0.1094
     46 H8          1.9129   -0.5854    5.5777 H         1 <0>         0.0688
     47 H9          1.4012    0.6755    6.7251 H         1 <0>         0.0698
     48 H10        -0.4407   -0.6771    4.7035 H         1 <0>         0.0808
     49 H11        -0.9792    1.1709    7.0725 H         1 <0>         0.0457
     50 H12        -1.0997    1.6229    5.3551 H         1 <0>         0.0791
     51 H13        -3.3281    1.0600    6.2857 H         1 <0>         0.0541
     52 H14        -2.8507   -0.1014    5.0242 H         1 <0>         0.0636
     53 H15        -2.5499   -0.5181    8.0329 H         1 <0>         0.0577
     54 H16        -3.7895   -1.2694    6.9998 H         1 <0>         0.0563
     55 H17        -1.8909   -2.8180    7.3814 H         1 <0>         0.0571
     56 H18        -2.0114   -2.3661    5.6640 H         1 <0>         0.0570
     57 H19         0.3375   -2.2551    6.4507 H         1 <0>         0.0550
     58 H20        -0.1399   -1.0938    7.7123 H         1 <0>         0.0585
     59 H21         2.8781    2.3861    5.7632 H         1 <0>         0.1130
     60 H22         2.8466    2.5186    2.7139 H         1 <0>         0.1011
     61 H23         4.4222    4.1265    4.7743 H         1 <0>         0.0657
     62 H24         5.0983    2.8339    3.7544 H         1 <0>         0.0791
     63 H25         3.7240    5.3346    2.6762 H         1 <0>         0.0765
     64 H26         6.6780    4.6341    2.9794 H         1 <0>         0.0535
     65 H27         6.0572    6.0083    2.0336 H         1 <0>         0.0551
     66 H28         5.8106    5.9568    3.7957 H         1 <0>         0.0531
     67 H29         3.6369    3.3472    1.1959 H         1 <0>         0.0534
     68 H30         4.7261    4.5896    0.5339 H         1 <0>         0.0549
     69 H31         5.4002    3.1571    1.3473 H         1 <0>         0.0531
     70 H32         1.9851    4.4509    4.7022 H         1 <0>         0.3750
     71 H33         3.7395    0.4538    3.7749 H         1 <0>         0.3698
     72 H34         0.7166   -2.6809    2.8511 H         1 <0>         0.0758
     73 H35        -0.7126   -1.7941    3.4334 H         1 <0>         0.0809
     74 H36        -0.9164   -3.2472    2.4260 H         1 <0>         0.0691
     75 H37        -0.1031   -4.0714    0.6299 H         1 <0>         0.4128
     76 H38        -0.6092   -6.0078   -1.1438 H         1 <0>         0.1215
     77 H39        -2.0553   -5.8071   -0.1255 H         1 <0>         0.1214
     78 H40        -1.6116   -7.8385   -0.6335 H         1 <0>         0.1200
     79 H41        -1.8868  -10.2822   -0.5428 H         1 <0>         0.1261
     80 H42        -3.2354  -11.4354   -2.2482 H         1 <0>         0.1262
     81 H43        -4.3119  -10.1499   -4.0496 H         1 <0>         0.1297
     82 H44        -4.0531   -7.7045   -4.1438 H         1 <0>         0.1294
@<TRIPOS>BOND
     1    1    2 1
     2    1   39 1
     3    1   40 1
     4    1   41 1
     5    2    7 ar
     6    2    3 ar
     7    3    4 ar
     8    3   42 1
     9    4    5 ar
    10    4   43 1
    11    5    6 ar
    12    5   28 1
    13    6    7 ar
    14    6   27 1
    15    7    8 1
    16    8    9 2
    17    8   10 am
    18   10   11 1
    19   10   44 1
    20   11   12 1
    21   11   19 1
    22   11   45 1
    23   12   13 1
    24   12   46 1
    25   12   47 1
    26   13   18 1
    27   13   14 1
    28   13   48 1
    29   14   15 1
    30   14   49 1
    31   14   50 1
    32   15   16 1
    33   15   51 1
    34   15   52 1
    35   16   17 1
    36   16   53 1
    37   16   54 1
    38   17   18 1
    39   17   55 1
    40   17   56 1
    41   18   57 1
    42   18   58 1
    43   19   20 1
    44   19   26 1
    45   19   59 1
    46   20   21 1
    47   20   25 1
    48   20   60 1
    49   21   22 1
    50   21   61 1
    51   21   62 1
    52   22   23 1
    53   22   24 1
    54   22   63 1
    55   23   64 1
    56   23   65 1
    57   23   66 1
    58   24   67 1
    59   24   68 1
    60   24   69 1
    61   25   70 1
    62   26   71 1
    63   27   72 1
    64   27   73 1
    65   27   74 1
    66   28   29 am
    67   28   75 1
    68   29   30 2
    69   29   31 1
    70   31   32 1
    71   31   76 1
    72   31   77 1
    73   32   33 1
    74   33   38 ar
    75   33   34 ar
    76   34   35 ar
    77   34   78 1
    78   35   36 ar
    79   35   79 1
    80   36   37 ar
    81   36   80 1
    82   37   38 ar
    83   37   81 1
    84   38   82 1
@<TRIPOS>MOLECULE
CHEMBL127362__5
   82    84     0     0     0
SMALL
USER_CHARGES

@<TRIPOS>ATOM
      1 C1          0.0160    1.5033   -0.0139 C.3       1 <0>        -0.1172
      2 C2          0.0273   -0.0037   -0.0157 C.ar      1 <0>        -0.0487
      3 C3          0.0266   -0.6924   -1.2119 C.ar      1 <0>        -0.1106
      4 C4          0.0375   -2.0744   -1.2189 C.ar      1 <0>        -0.0943
      5 C5          0.0487   -2.7801   -0.0216 C.ar      1 <0>         0.1319
      6 C6          0.0494   -2.0979    1.1849 C.ar      1 <0>        -0.0704
      7 C7          0.0443   -0.7030    1.1921 C.ar      1 <0>        -0.1124
      8 C8          0.0512    0.0322    2.4749 C.2       1 <0>         0.5767
      9 O1         -0.9985    0.3265    3.0124 O.2       1 <0>        -0.5150
     10 N1          1.2215    0.3761    3.0482 N.am      1 <0>        -0.7012
     11 C9          1.2283    1.1046    4.3192 C.3       1 <0>         0.1189
     12 C10         1.1213    0.1106    5.4774 C.3       1 <0>        -0.1219
     13 C11        -0.2360   -0.5933    5.4216 C.3       1 <0>        -0.0878
     14 C12        -1.3502    0.4277    5.6603 C.3       1 <0>        -0.1056
     15 C13        -2.7075   -0.2762    5.6045 C.3       1 <0>        -0.1126
     16 C14        -2.7662   -1.3572    6.6856 C.3       1 <0>        -0.1208
     17 C15        -1.6520   -2.3783    6.4469 C.3       1 <0>        -0.1168
     18 C16        -0.2947   -1.6744    6.5027 C.3       1 <0>        -0.1150
     19 C17         2.5310    1.8970    4.4459 C.3       1 <0>         0.0663
     20 C18         2.6380    2.8910    3.2878 C.3       1 <0>         0.0747
     21 C19         3.9953    3.5949    3.3435 C.3       1 <0>        -0.1399
     22 C20         4.0540    4.6760    2.2624 C.3       1 <0>        -0.0931
     23 C21         3.0217    5.7623    2.5709 C.3       1 <0>        -0.1507
     24 C22         5.4530    5.2948    2.2354 C.3       1 <0>        -0.1489
     25 O2          2.5144    2.1923    2.0474 O.3       1 <0>        -0.5421
     26 O3          3.6411    0.9980    4.4061 O.3       1 <0>        -0.5450
     27 C23         0.0611   -2.8606    2.4846 C.3       1 <0>        -0.1272
     28 N2          0.0587   -4.1796   -0.0342 N.am      1 <0>        -0.6652
     29 C24        -0.6066   -4.8496   -0.9959 C.2       1 <0>         0.5341
     30 O4         -1.1454   -4.2417   -1.8965 O.2       1 <0>        -0.4945
     31 C25        -0.6810   -6.3541   -0.9521 C.3       1 <0>        -0.1546
     32 S1         -1.6370   -6.9538   -2.3724 S.3       1 <0>        -0.0289
     33 C26        -1.6327   -8.7053   -2.1802 C.ar      1 <0>        -0.1009
     34 C27        -0.9819   -9.2857   -1.0981 C.ar      1 <0>        -0.1376
     35 C28        -0.9805  -10.6586   -0.9508 C.ar      1 <0>        -0.0995
     36 C29        -1.6257  -11.4559   -1.8785 C.ar      1 <0>        -0.1243
     37 C30        -2.2740  -10.8819   -2.9569 C.ar      1 <0>        -0.0983
     38 C31        -2.2848   -9.5093   -3.1074 C.ar      1 <0>        -0.0979
     39 H1          1.0408    1.8743   -0.0234 H         1 <0>         0.0844
     40 H2         -0.5092    1.8638   -0.8984 H         1 <0>         0.0667
     41 H3         -0.4919    1.8617    0.8815 H         1 <0>         0.0676
     42 H4          0.0172   -0.1495   -2.1454 H         1 <0>         0.1318
     43 H5          0.0369   -2.6078   -2.1580 H         1 <0>         0.1432
     44 H6          2.0592    0.1413    2.6193 H         1 <0>         0.3916
     45 H7          0.3816    1.7903    4.3496 H         1 <0>         0.1006
     46 H8          1.9178   -0.6291    5.3961 H         1 <0>         0.0687
     47 H9          1.2156    0.6435    6.4235 H         1 <0>         0.0695
     48 H10        -0.3674   -1.0520    4.4416 H         1 <0>         0.0820
     49 H11        -1.2188    0.8864    6.6403 H         1 <0>         0.0454
     50 H12        -1.3084    1.1979    4.8901 H         1 <0>         0.0781
     51 H13        -3.5013    0.4512    5.7746 H         1 <0>         0.0536
     52 H14        -2.8389   -0.7349    4.6245 H         1 <0>         0.0640
     53 H15        -2.6348   -0.8985    7.6657 H         1 <0>         0.0575
     54 H16        -3.7332   -1.8587    6.6459 H         1 <0>         0.0562
     55 H17        -1.6938   -3.1484    7.2171 H         1 <0>         0.0569
     56 H18        -1.7834   -2.8370    5.4669 H         1 <0>         0.0571
     57 H19         0.4991   -2.4018    6.3326 H         1 <0>         0.0549
     58 H20        -0.1633   -1.2157    7.4827 H         1 <0>         0.0582
     59 H21         2.5361    2.4390    5.3916 H         1 <0>         0.1192
     60 H22         1.8415    3.6307    3.3691 H         1 <0>         0.1108
     61 H23         4.1267    4.0536    4.3236 H         1 <0>         0.0714
     62 H24         4.7891    2.8675    3.1735 H         1 <0>         0.0711
     63 H25         3.8346    4.2314    1.2917 H         1 <0>         0.0762
     64 H26         3.2412    6.2069    3.5416 H         1 <0>         0.0526
     65 H27         3.0635    6.5325    1.8007 H         1 <0>         0.0543
     66 H28         2.0250    5.3215    2.5902 H         1 <0>         0.0556
     67 H29         6.1884    4.5209    2.0156 H         1 <0>         0.0530
     68 H30         5.4948    6.0649    1.4652 H         1 <0>         0.0545
     69 H31         5.6725    5.7394    3.2061 H         1 <0>         0.0530
     70 H32         3.1920    1.5169    1.9072 H         1 <0>         0.3621
     71 H33         3.6997    0.4812    3.5910 H         1 <0>         0.3650
     72 H34         1.0915   -3.0371    2.7932 H         1 <0>         0.0748
     73 H35        -0.4534   -2.2806    3.2509 H         1 <0>         0.0805
     74 H36        -0.4466   -3.8158    2.3500 H         1 <0>         0.0682
     75 H37         0.5445   -4.6673    0.6492 H         1 <0>         0.4123
     76 H38         0.3262   -6.7690   -0.9908 H         1 <0>         0.1213
     77 H39        -1.1677   -6.6671   -0.0284 H         1 <0>         0.1211
     78 H40        -0.4775   -8.6636   -0.3735 H         1 <0>         0.1201
     79 H41        -0.4747  -11.1104   -0.1103 H         1 <0>         0.1260
     80 H42        -1.6230  -12.5295   -1.7608 H         1 <0>         0.1261
     81 H43        -2.7766  -11.5076   -3.6796 H         1 <0>         0.1297
     82 H44        -2.7957   -9.0614   -3.9469 H         1 <0>         0.1293
@<TRIPOS>BOND
     1    1    2 1
     2    1   39 1
     3    1   40 1
     4    1   41 1
     5    2    7 ar
     6    2    3 ar
     7    3    4 ar
     8    3   42 1
     9    4    5 ar
    10    4   43 1
    11    5    6 ar
    12    5   28 1
    13    6    7 ar
    14    6   27 1
    15    7    8 1
    16    8    9 2
    17    8   10 am
    18   10   11 1
    19   10   44 1
    20   11   12 1
    21   11   19 1
    22   11   45 1
    23   12   13 1
    24   12   46 1
    25   12   47 1
    26   13   18 1
    27   13   14 1
    28   13   48 1
    29   14   15 1
    30   14   49 1
    31   14   50 1
    32   15   16 1
    33   15   51 1
    34   15   52 1
    35   16   17 1
    36   16   53 1
    37   16   54 1
    38   17   18 1
    39   17   55 1
    40   17   56 1
    41   18   57 1
    42   18   58 1
    43   19   20 1
    44   19   26 1
    45   19   59 1
    46   20   21 1
    47   20   25 1
    48   20   60 1
    49   21   22 1
    50   21   61 1
    51   21   62 1
    52   22   23 1
    53   22   24 1
    54   22   63 1
    55   23   64 1
    56   23   65 1
    57   23   66 1
    58   24   67 1
    59   24   68 1
    60   24   69 1
    61   25   70 1
    62   26   71 1
    63   27   72 1
    64   27   73 1
    65   27   74 1
    66   28   29 am
    67   28   75 1
    68   29   30 2
    69   29   31 1
    70   31   32 1
    71   31   76 1
    72   31   77 1
    73   32   33 1
    74   33   38 ar
    75   33   34 ar
    76   34   35 ar
    77   34   78 1
    78   35   36 ar
    79   35   79 1
    80   36   37 ar
    81   36   80 1
    82   37   38 ar
    83   37   81 1
    84   38   82 1
@<TRIPOS>MOLECULE
CHEMBL127362__6
   82    84     0     0     0
SMALL
USER_CHARGES

@<TRIPOS>ATOM
      1 C1         -0.5303    0.9737    1.1433 C.3       1 <0>        -0.1202
      2 C2         -0.4628   -0.5091    1.4037 C.ar      1 <0>        -0.0552
      3 C3         -0.5853   -1.3999    0.3566 C.ar      1 <0>        -0.1078
      4 C4         -0.5236   -2.7608    0.5901 C.ar      1 <0>        -0.0954
      5 C5         -0.3384   -3.2414    1.8810 C.ar      1 <0>         0.1345
      6 C6         -0.2143   -2.3552    2.9393 C.ar      1 <0>        -0.0696
      7 C7         -0.2708   -0.9816    2.7030 C.ar      1 <0>        -0.1134
      8 C8         -0.1332   -0.0294    3.8258 C.2       1 <0>         0.5739
      9 O1         -1.1189    0.3403    4.4334 O.2       1 <0>        -0.5077
     10 N1          1.0851    0.4287    4.1754 N.am      1 <0>        -0.7147
     11 C9          1.2214    1.3722    5.2879 C.3       1 <0>         0.1162
     12 C10         1.2954    0.5990    6.6061 C.3       1 <0>        -0.1245
     13 C11        -0.0486   -0.0808    6.8748 C.3       1 <0>        -0.0875
     14 C12        -1.1251    0.9848    7.0904 C.3       1 <0>        -0.1039
     15 C13        -2.4692    0.3050    7.3591 C.3       1 <0>        -0.1136
     16 C14        -2.3579   -0.5681    8.6106 C.3       1 <0>        -0.1205
     17 C15        -1.2815   -1.6338    8.3949 C.3       1 <0>        -0.1170
     18 C16         0.0626   -0.9539    8.1262 C.3       1 <0>        -0.1150
     19 C17         2.4992    2.1938    5.1061 C.3       1 <0>         0.0680
     20 C18         2.3849    3.0405    3.8369 C.3       1 <0>         0.0747
     21 C19         3.6389    3.9039    3.6851 C.3       1 <0>        -0.1419
     22 C20         3.5665    4.6814    2.3694 C.3       1 <0>        -0.0946
     23 C21         4.7402    5.6597    2.2899 C.3       1 <0>        -0.1489
     24 C22         3.6371    3.7037    1.1946 C.3       1 <0>        -0.1498
     25 O2          1.2345    3.8833    3.9285 O.3       1 <0>        -0.5487
     26 O3          2.6793    3.0505    6.2356 O.3       1 <0>        -0.5430
     27 C23        -0.0139   -2.8736    4.3401 C.3       1 <0>        -0.1268
     28 N2         -0.2776   -4.6204    2.1122 N.am      1 <0>        -0.6649
     29 C24        -1.0135   -5.4628    1.3605 C.2       1 <0>         0.5344
     30 O4         -1.6648   -5.0348    0.4311 O.2       1 <0>        -0.4942
     31 C25        -1.0272   -6.9367    1.6746 C.3       1 <0>        -0.1547
     32 S1         -2.1021   -7.7968    0.4933 S.3       1 <0>        -0.0286
     33 C26        -2.0129   -9.4857    0.9873 C.ar      1 <0>        -0.1010
     34 C27        -1.2326   -9.8524    2.0773 C.ar      1 <0>        -0.1376
     35 C28        -1.1651  -11.1770    2.4615 C.ar      1 <0>        -0.0995
     36 C29        -1.8729  -12.1383    1.7631 C.ar      1 <0>        -0.1242
     37 C30        -2.6501  -11.7771    0.6776 C.ar      1 <0>        -0.0982
     38 C31        -2.7272  -10.4537    0.2914 C.ar      1 <0>        -0.0978
     39 H1          0.4709    1.3524    0.9379 H         1 <0>         0.0731
     40 H2         -1.1737    1.1628    0.2841 H         1 <0>         0.0732
     41 H3         -0.9369    1.4784    2.0198 H         1 <0>         0.0717
     42 H4         -0.7301   -1.0324   -0.6486 H         1 <0>         0.1332
     43 H5         -0.6201   -3.4530   -0.2333 H         1 <0>         0.1460
     44 H6          1.8717    0.1338    3.6905 H         1 <0>         0.3980
     45 H7          0.3598    2.0395    5.3060 H         1 <0>         0.1049
     46 H8          2.0782   -0.1567    6.5406 H         1 <0>         0.0613
     47 H9          1.5230    1.2883    7.4193 H         1 <0>         0.0789
     48 H10        -0.3185   -0.7023    6.0210 H         1 <0>         0.0812
     49 H11        -0.8552    1.6063    7.9442 H         1 <0>         0.0468
     50 H12        -1.2043    1.6069    6.1989 H         1 <0>         0.0752
     51 H13        -3.2360    1.0642    7.5127 H         1 <0>         0.0542
     52 H14        -2.7391   -0.3165    6.5053 H         1 <0>         0.0639
     53 H15        -2.0880    0.0534    9.4644 H         1 <0>         0.0579
     54 H16        -3.3155   -1.0525    8.8020 H         1 <0>         0.0564
     55 H17        -1.2022   -2.2558    9.2865 H         1 <0>         0.0571
     56 H18        -1.5514   -2.2553    7.5411 H         1 <0>         0.0572
     57 H19         0.8295   -1.7131    7.9726 H         1 <0>         0.0545
     58 H20         0.3325   -0.3324    8.9800 H         1 <0>         0.0588
     59 H21         3.3536    1.5225    5.0193 H         1 <0>         0.1080
     60 H22         2.2876    2.3857    2.9709 H         1 <0>         0.1077
     61 H23         3.7008    4.6042    4.5180 H         1 <0>         0.0728
     62 H24         4.5218    3.2647    3.6813 H         1 <0>         0.0710
     63 H25         2.6285    5.2349    2.3255 H         1 <0>         0.0767
     64 H26         5.6757    5.1020    2.2454 H         1 <0>         0.0531
     65 H27         4.6408    6.2745    1.3953 H         1 <0>         0.0547
     66 H28         4.7403    6.2995    3.1723 H         1 <0>         0.0538
     67 H29         2.8009    3.0067    1.2513 H         1 <0>         0.0542
     68 H30         3.5855    4.2576    0.2573 H         1 <0>         0.0551
     69 H31         4.5751    3.1502    1.2385 H         1 <0>         0.0528
     70 H32         1.2530    4.4939    4.6781 H         1 <0>         0.3698
     71 H33         1.9551    3.6761    6.3742 H         1 <0>         0.3740
     72 H34         1.0526   -2.9768    4.5402 H         1 <0>         0.0756
     73 H35        -0.4512   -2.1741    5.0525 H         1 <0>         0.0800
     74 H36        -0.4982   -3.8450    4.4407 H         1 <0>         0.0690
     75 H37         0.2942   -4.9698    2.8136 H         1 <0>         0.4128
     76 H38        -0.0147   -7.3334    1.6001 H         1 <0>         0.1215
     77 H39        -1.4037   -7.0891    2.6861 H         1 <0>         0.1214
     78 H40        -0.6794   -9.1023    2.6229 H         1 <0>         0.1200
     79 H41        -0.5587  -11.4627    3.3083 H         1 <0>         0.1261
     80 H42        -1.8182  -13.1735    2.0659 H         1 <0>         0.1262
     81 H43        -3.2011  -12.5305    0.1343 H         1 <0>         0.1297
     82 H44        -3.3385  -10.1716   -0.5532 H         1 <0>         0.1294
@<TRIPOS>BOND
     1    1    2 1
     2    1   39 1
     3    1   40 1
     4    1   41 1
     5    2    7 ar
     6    2    3 ar
     7    3    4 ar
     8    3   42 1
     9    4    5 ar
    10    4   43 1
    11    5    6 ar
    12    5   28 1
    13    6    7 ar
    14    6   27 1
    15    7    8 1
    16    8    9 2
    17    8   10 am
    18   10   11 1
    19   10   44 1
    20   11   12 1
    21   11   19 1
    22   11   45 1
    23   12   13 1
    24   12   46 1
    25   12   47 1
    26   13   18 1
    27   13   14 1
    28   13   48 1
    29   14   15 1
    30   14   49 1
    31   14   50 1
    32   15   16 1
    33   15   51 1
    34   15   52 1
    35   16   17 1
    36   16   53 1
    37   16   54 1
    38   17   18 1
    39   17   55 1
    40   17   56 1
    41   18   57 1
    42   18   58 1
    43   19   20 1
    44   19   26 1
    45   19   59 1
    46   20   21 1
    47   20   25 1
    48   20   60 1
    49   21   22 1
    50   21   61 1
    51   21   62 1
    52   22   23 1
    53   22   24 1
    54   22   63 1
    55   23   64 1
    56   23   65 1
    57   23   66 1
    58   24   67 1
    59   24   68 1
    60   24   69 1
    61   25   70 1
    62   26   71 1
    63   27   72 1
    64   27   73 1
    65   27   74 1
    66   28   29 am
    67   28   75 1
    68   29   30 2
    69   29   31 1
    70   31   32 1
    71   31   76 1
    72   31   77 1
    73   32   33 1
    74   33   38 ar
    75   33   34 ar
    76   34   35 ar
    77   34   78 1
    78   35   36 ar
    79   35   79 1
    80   36   37 ar
    81   36   80 1
    82   37   38 ar
    83   37   81 1
    84   38   82 1
@<TRIPOS>MOLECULE
CHEMBL127362__7
   82    84     0     0     0
SMALL
USER_CHARGES

@<TRIPOS>ATOM
      1 C1          0.0160    1.5033   -0.0139 C.3       1 <0>        -0.1211
      2 C2          0.0273   -0.0037   -0.0157 C.ar      1 <0>        -0.0564
      3 C3          0.0266   -0.6924   -1.2119 C.ar      1 <0>        -0.1076
      4 C4          0.0375   -2.0744   -1.2189 C.ar      1 <0>        -0.0943
      5 C5          0.0487   -2.7801   -0.0216 C.ar      1 <0>         0.1347
      6 C6          0.0494   -2.0979    1.1849 C.ar      1 <0>        -0.0686
      7 C7          0.0443   -0.7030    1.1921 C.ar      1 <0>        -0.1125
      8 C8          0.0512    0.0322    2.4749 C.2       1 <0>         0.5690
      9 O1         -0.9985    0.3265    3.0124 O.2       1 <0>        -0.5108
     10 N1          1.2215    0.3761    3.0482 N.am      1 <0>        -0.7144
     11 C9          1.2283    1.1046    4.3192 C.3       1 <0>         0.1144
     12 C10         1.1213    0.1106    5.4774 C.3       1 <0>        -0.1336
     13 C11        -0.2360   -0.5933    5.4216 C.3       1 <0>        -0.0843
     14 C12        -1.3502    0.4277    5.6603 C.3       1 <0>        -0.1036
     15 C13        -2.7075   -0.2762    5.6045 C.3       1 <0>        -0.1131
     16 C14        -2.7662   -1.3572    6.6856 C.3       1 <0>        -0.1209
     17 C15        -1.6520   -2.3783    6.4469 C.3       1 <0>        -0.1167
     18 C16        -0.2947   -1.6744    6.5027 C.3       1 <0>        -0.1157
     19 C17         2.5310    1.8970    4.4459 C.3       1 <0>         0.0687
     20 C18         2.4854    2.7544    5.7123 C.3       1 <0>         0.0772
     21 C19         3.7881    3.5467    5.8390 C.3       1 <0>        -0.1432
     22 C20         3.7952    4.3075    7.1664 C.3       1 <0>        -0.0944
     23 C21         3.8140    3.3097    8.3260 C.3       1 <0>        -0.1503
     24 C22         5.0385    5.1963    7.2381 C.3       1 <0>        -0.1489
     25 O2          1.3826    3.6599    5.6350 O.3       1 <0>        -0.5490
     26 O3          3.6337    0.9914    4.5233 O.3       1 <0>        -0.5502
     27 C23         0.0611   -2.8606    2.4846 C.3       1 <0>        -0.1274
     28 N2          0.0587   -4.1796   -0.0342 N.am      1 <0>        -0.6653
     29 C24        -0.6066   -4.8496   -0.9959 C.2       1 <0>         0.5345
     30 O4         -1.1454   -4.2417   -1.8965 O.2       1 <0>        -0.4943
     31 C25        -0.6810   -6.3541   -0.9521 C.3       1 <0>        -0.1546
     32 S1         -1.6370   -6.9538   -2.3724 S.3       1 <0>        -0.0288
     33 C26        -1.6327   -8.7053   -2.1802 C.ar      1 <0>        -0.1009
     34 C27        -0.9819   -9.2857   -1.0981 C.ar      1 <0>        -0.1377
     35 C28        -0.9805  -10.6586   -0.9508 C.ar      1 <0>        -0.0995
     36 C29        -1.6257  -11.4559   -1.8785 C.ar      1 <0>        -0.1243
     37 C30        -2.2740  -10.8819   -2.9569 C.ar      1 <0>        -0.0983
     38 C31        -2.2848   -9.5093   -3.1074 C.ar      1 <0>        -0.0978
     39 H1          1.0408    1.8743   -0.0234 H         1 <0>         0.0742
     40 H2         -0.5092    1.8638   -0.8984 H         1 <0>         0.0742
     41 H3         -0.4919    1.8617    0.8815 H         1 <0>         0.0692
     42 H4          0.0172   -0.1495   -2.1454 H         1 <0>         0.1334
     43 H5          0.0369   -2.6078   -2.1580 H         1 <0>         0.1446
     44 H6          2.0592    0.1413    2.6193 H         1 <0>         0.4042
     45 H7          0.3816    1.7903    4.3496 H         1 <0>         0.1103
     46 H8          1.9178   -0.6291    5.3961 H         1 <0>         0.0637
     47 H9          1.2156    0.6435    6.4235 H         1 <0>         0.0740
     48 H10        -0.3674   -1.0520    4.4416 H         1 <0>         0.0816
     49 H11        -1.2188    0.8864    6.6403 H         1 <0>         0.0470
     50 H12        -1.3084    1.1979    4.8901 H         1 <0>         0.0792
     51 H13        -3.5013    0.4512    5.7746 H         1 <0>         0.0543
     52 H14        -2.8389   -0.7349    4.6245 H         1 <0>         0.0633
     53 H15        -2.6348   -0.8985    7.6657 H         1 <0>         0.0579
     54 H16        -3.7332   -1.8587    6.6459 H         1 <0>         0.0563
     55 H17        -1.6938   -3.1484    7.2171 H         1 <0>         0.0573
     56 H18        -1.7834   -2.8370    5.4669 H         1 <0>         0.0572
     57 H19         0.4991   -2.4018    6.3326 H         1 <0>         0.0548
     58 H20        -0.1633   -1.2157    7.4827 H         1 <0>         0.0587
     59 H21         2.6505    2.5414    3.5750 H         1 <0>         0.1054
     60 H22         2.3659    2.1099    6.5832 H         1 <0>         0.1071
     61 H23         4.6348    2.8610    5.8086 H         1 <0>         0.0803
     62 H24         3.8643    4.2549    5.0139 H         1 <0>         0.0655
     63 H25         2.9011    4.9273    7.2348 H         1 <0>         0.0764
     64 H26         4.7081    2.6899    8.2576 H         1 <0>         0.0536
     65 H27         3.8191    3.8517    9.2717 H         1 <0>         0.0551
     66 H28         2.9282    2.6765    8.2749 H         1 <0>         0.0546
     67 H29         5.0251    5.9072    6.4120 H         1 <0>         0.0532
     68 H30         5.0436    5.7383    8.1838 H         1 <0>         0.0551
     69 H31         5.9326    4.5766    7.1697 H         1 <0>         0.0537
     70 H32         1.4228    4.2652    4.8819 H         1 <0>         0.3755
     71 H33         3.5936    0.3861    5.2763 H         1 <0>         0.3768
     72 H34         1.0915   -3.0371    2.7932 H         1 <0>         0.0758
     73 H35        -0.4534   -2.2806    3.2509 H         1 <0>         0.0805
     74 H36        -0.4466   -3.8158    2.3500 H         1 <0>         0.0691
     75 H37         0.5445   -4.6673    0.6492 H         1 <0>         0.4128
     76 H38         0.3262   -6.7690   -0.9908 H         1 <0>         0.1215
     77 H39        -1.1677   -6.6671   -0.0284 H         1 <0>         0.1214
     78 H40        -0.4775   -8.6636   -0.3735 H         1 <0>         0.1201
     79 H41        -0.4747  -11.1104   -0.1103 H         1 <0>         0.1261
     80 H42        -1.6230  -12.5295   -1.7608 H         1 <0>         0.1261
     81 H43        -2.7766  -11.5076   -3.6796 H         1 <0>         0.1297
     82 H44        -2.7957   -9.0614   -3.9469 H         1 <0>         0.1294
@<TRIPOS>BOND
     1    1    2 1
     2    1   39 1
     3    1   40 1
     4    1   41 1
     5    2    7 ar
     6    2    3 ar
     7    3    4 ar
     8    3   42 1
     9    4    5 ar
    10    4   43 1
    11    5    6 ar
    12    5   28 1
    13    6    7 ar
    14    6   27 1
    15    7    8 1
    16    8    9 2
    17    8   10 am
    18   10   11 1
    19   10   44 1
    20   11   12 1
    21   11   19 1
    22   11   45 1
    23   12   13 1
    24   12   46 1
    25   12   47 1
    26   13   18 1
    27   13   14 1
    28   13   48 1
    29   14   15 1
    30   14   49 1
    31   14   50 1
    32   15   16 1
    33   15   51 1
    34   15   52 1
    35   16   17 1
    36   16   53 1
    37   16   54 1
    38   17   18 1
    39   17   55 1
    40   17   56 1
    41   18   57 1
    42   18   58 1
    43   19   20 1
    44   19   26 1
    45   19   59 1
    46   20   21 1
    47   20   25 1
    48   20   60 1
    49   21   22 1
    50   21   61 1
    51   21   62 1
    52   22   23 1
    53   22   24 1
    54   22   63 1
    55   23   64 1
    56   23   65 1
    57   23   66 1
    58   24   67 1
    59   24   68 1
    60   24   69 1
    61   25   70 1
    62   26   71 1
    63   27   72 1
    64   27   73 1
    65   27   74 1
    66   28   29 am
    67   28   75 1
    68   29   30 2
    69   29   31 1
    70   31   32 1
    71   31   76 1
    72   31   77 1
    73   32   33 1
    74   33   38 ar
    75   33   34 ar
    76   34   35 ar
    77   34   78 1
    78   35   36 ar
    79   35   79 1
    80   36   37 ar
    81   36   80 1
    82   37   38 ar
    83   37   81 1
    84   38   82 1
@<TRIPOS>MOLECULE
CHEMBL283683
   69    73     0     0     0
SMALL
USER_CHARGES

@<TRIPOS>ATOM
      1 C1         -0.0167    1.3781    0.0096 C.ar      1 <0>        -0.1116
      2 C2          1.1709    2.0855    0.0021 C.ar      1 <0>        -0.1228
      3 C3          2.3773    1.4107   -0.0130 C.ar      1 <0>        -0.0990
      4 C4          2.3960    0.0285   -0.0201 C.ar      1 <0>        -0.0949
      5 C5          1.2084   -0.6789   -0.0117 C.ar      1 <0>        -0.0978
      6 C6          0.0021   -0.0041    0.0020 C.ar      1 <0>        -0.1232
      7 C7          3.7112   -0.7071   -0.0376 C.3       1 <0>         0.1035
      8 O1          4.1410   -0.9464    1.3041 O.3       1 <0>        -0.3757
      9 C8          5.3853   -1.6423    1.4004 C.3       1 <0>         0.0608
     10 C9          5.7451   -1.8423    2.8740 C.3       1 <0>         0.0617
     11 O2          4.7825   -2.7024    3.4869 O.3       1 <0>        -0.3026
     12 C10         4.9573   -2.9839    4.8049 C.ar      1 <0>         0.1467
     13 C11         6.0299   -2.4388    5.4955 C.ar      1 <0>        -0.2055
     14 C12         6.2051   -2.7262    6.8353 C.ar      1 <0>        -0.0553
     15 C13         5.3128   -3.5566    7.4879 C.ar      1 <0>        -0.1293
     16 C14         4.2432   -4.1014    6.8018 C.ar      1 <0>        -0.0780
     17 C15         4.0601   -3.8123    5.4634 C.ar      1 <0>        -0.1487
     18 C16         5.5066   -3.8688    8.9495 C.3       1 <0>        -0.0469
     19 H1          6.3947   -3.3548    9.3173 H         1 <0>         0.1031
     20 C17         4.2807   -3.4021    9.7397 C.3       1 <0>        -0.1396
     21 C18         4.4489   -3.7931   11.2095 C.3       1 <0>        -0.0100
     22 N1          4.5782   -5.2510   11.3200 N.4       1 <0>        -0.4993
     23 C19         5.7913   -5.6976   10.6247 C.3       1 <0>        -0.0392
     24 C20         5.6767   -5.3797    9.1322 C.3       1 <0>         0.0779
     25 H2          4.8116   -5.8963    8.7166 H         1 <0>         0.0856
     26 O3          6.8606   -5.8115    8.4584 O.3       1 <0>        -0.3425
     27 C21         6.7964   -7.1542    7.9736 C.3       1 <0>         0.1000
     28 C22         8.0908   -7.5018    7.2844 C.ar      1 <0>        -0.0978
     29 C23         8.2302   -7.2536    5.9201 C.ar      1 <0>        -0.0997
     30 C24         9.3855   -7.5560    5.2673 C.ar      1 <0>        -0.1005
     31 C25        10.4560   -8.1268    5.9767 C.ar      1 <0>        -0.0435
     32 C26        11.6645   -8.4521    5.3372 C.ar      1 <0>        -0.1086
     33 C27        12.6798   -9.0033    6.0566 C.ar      1 <0>        -0.1072
     34 C28        12.5405   -9.2512    7.4210 C.ar      1 <0>        -0.1109
     35 C29        11.3850   -8.9492    8.0736 C.ar      1 <0>        -0.1073
     36 C30        10.3144   -8.3788    7.3641 C.ar      1 <0>        -0.0569
     37 C31         9.1079   -8.0483    8.0047 C.ar      1 <0>        -0.0773
     38 H3         -0.9591    1.9053    0.0259 H         1 <0>         0.1245
     39 H4          1.1563    3.1654    0.0076 H         1 <0>         0.1252
     40 H5          3.3051    1.9634   -0.0196 H         1 <0>         0.1226
     41 H6          1.2231   -1.7588   -0.0176 H         1 <0>         0.1223
     42 H7         -0.9258   -0.5567    0.0082 H         1 <0>         0.1247
     43 H8          3.5884   -1.6586   -0.5549 H         1 <0>         0.0607
     44 H9          4.4573   -0.1052   -0.5563 H         1 <0>         0.0605
     45 H10         5.2973   -2.6133    0.9129 H         1 <0>         0.0638
     46 H11         6.1662   -1.0598    0.9116 H         1 <0>         0.0761
     47 H12         6.7347   -2.2931    2.9485 H         1 <0>         0.0807
     48 H13         5.7461   -0.8778    3.3819 H         1 <0>         0.0744
     49 H14         6.7276   -1.7907    4.9860 H         1 <0>         0.1311
     50 H15         7.0400   -2.3021    7.3734 H         1 <0>         0.1252
     51 H16         3.5477   -4.7501    7.3136 H         1 <0>         0.1207
     52 H17         3.2220   -4.2345    4.9289 H         1 <0>         0.1332
     53 H18         4.1866   -2.3191    9.6596 H         1 <0>         0.1224
     54 H19         3.3858   -3.8765    9.3370 H         1 <0>         0.0930
     55 H20         5.3439   -3.3179   11.6113 H         1 <0>         0.1341
     56 H21         3.5779   -3.4621   11.7751 H         1 <0>         0.1388
     57 H22         4.6353   -5.5098   12.2936 H         1 <0>         0.4351
     58 H23         6.6577   -5.1818   11.0389 H         1 <0>         0.1410
     59 H24         5.9114   -6.7727   10.7586 H         1 <0>         0.1338
     60 H25         6.6356   -7.8351    8.8095 H         1 <0>         0.0605
     61 H26         5.9721   -7.2461    7.2663 H         1 <0>         0.0685
     62 H27         7.4091   -6.8151    5.3726 H         1 <0>         0.1227
     63 H28         9.4789   -7.3587    4.2096 H         1 <0>         0.1308
     64 H29        11.7867   -8.2660    4.2804 H         1 <0>         0.1306
     65 H30        13.6073   -9.2527    5.5627 H         1 <0>         0.1280
     66 H31        13.3616   -9.6898    7.9685 H         1 <0>         0.1273
     67 H32        11.2912   -9.1473    9.1311 H         1 <0>         0.1276
     68 H33         8.9872   -8.2307    9.0624 H         1 <0>         0.1251
     69 H34         3.7717   -5.6917   10.9037 H         1 <0>         0.4276
@<TRIPOS>BOND
     1    1    6 ar
     2    1    2 ar
     3    1   38 1
     4    2    3 ar
     5    2   39 1
     6    3    4 ar
     7    3   40 1
     8    4    5 ar
     9    4    7 1
    10    5    6 ar
    11    5   41 1
    12    6   42 1
    13    7    8 1
    14    7   43 1
    15    7   44 1
    16    8    9 1
    17    9   10 1
    18    9   45 1
    19    9   46 1
    20   10   11 1
    21   10   47 1
    22   10   48 1
    23   11   12 1
    24   12   17 ar
    25   12   13 ar
    26   13   14 ar
    27   13   49 1
    28   14   15 ar
    29   14   50 1
    30   15   16 ar
    31   15   18 1
    32   16   17 ar
    33   16   51 1
    34   17   52 1
    35   18   19 1
    36   18   24 1
    37   18   20 1
    38   20   21 1
    39   20   53 1
    40   20   54 1
    41   21   22 1
    42   21   55 1
    43   21   56 1
    44   22   23 1
    45   22   57 1
    46   22   69 1
    47   23   24 1
    48   23   58 1
    49   23   59 1
    50   24   25 1
    51   24   26 1
    52   26   27 1
    53   27   28 1
    54   27   60 1
    55   27   61 1
    56   28   37 ar
    57   28   29 ar
    58   29   30 ar
    59   29   62 1
    60   30   31 ar
    61   30   63 1
    62   31   36 ar
    63   31   32 ar
    64   32   33 ar
    65   32   64 1
    66   33   34 ar
    67   33   65 1
    68   34   35 ar
    69   34   66 1
    70   35   36 ar
    71   35   67 1
    72   36   37 ar
    73   37   68 1
@<TRIPOS>MOLECULE
CHEMBL43347
   75    78     0     0     0
SMALL
USER_CHARGES

@<TRIPOS>ATOM
      1 C1          1.5656    1.4233   -4.1366 C.3       1 <0>        -0.1561
      2 C2          1.3209    0.0735   -3.4592 C.3       1 <0>        -0.1106
      3 C3         -0.1770   -0.1048   -3.2034 C.3       1 <0>        -0.0685
      4 C4         -0.4180   -1.4343   -2.5362 C.2       1 <0>         0.2508
      5 C5         -1.7282   -1.8310   -2.2031 C.2       1 <0>         0.1313
      6 N1         -2.9204   -1.2791   -2.3395 N.2       1 <0>        -0.2386
      7 N2         -3.8145   -2.0719   -1.8599 N.2       1 <0>        -0.2264
      8 C6         -3.2523   -3.1609   -1.3960 C.2       1 <0>         0.1762
      9 N3         -1.9228   -3.0501   -1.5941 N.pl3     1 <0>        -0.3603
     10 C7         -0.8442   -3.8422   -1.3287 C.2       1 <0>         0.0123
     11 C8          0.4028   -3.4156   -1.6694 C.2       1 <0>         0.1345
     12 N4          0.5895   -2.2278   -2.2686 N.2       1 <0>        -0.4475
     13 C9          1.5740   -4.2789   -1.3798 C.ar      1 <0>        -0.0946
     14 C10         2.8651   -3.8605   -1.7147 C.ar      1 <0>        -0.0317
     15 C11         3.9243   -4.7023   -1.4231 C.ar      1 <0>        -0.1710
     16 C12         3.6738   -5.9192   -0.8152 C.ar      1 <0>         0.1113
     17 N5          2.4443   -6.2870   -0.5109 N.ar      1 <0>        -0.4795
     18 C13         1.4055   -5.5174   -0.7642 C.ar      1 <0>         0.1167
     19 C14        -3.9627   -4.3260   -0.7563 C.3       1 <0>        -0.0544
     20 C15        -4.3380   -5.3290   -1.8166 C.2       1 <0>         0.5223
     21 O1         -4.0564   -5.1185   -2.9773 O.2       1 <0>        -0.5128
     22 N6         -4.9866   -6.4599   -1.4749 N.am      1 <0>        -0.7193
     23 C16        -5.4458   -7.3837   -2.5151 C.3       1 <0>         0.1083
     24 C17        -6.7833   -6.8962   -3.0759 C.3       1 <0>        -0.1199
     25 C18        -7.1878   -7.7717   -4.2636 C.3       1 <0>        -0.1191
     26 C19        -6.2019   -7.5578   -5.4140 C.3       1 <0>        -0.1175
     27 C20        -6.6065   -8.4333   -6.6018 C.3       1 <0>        -0.1175
     28 C21        -8.0155   -8.0518   -7.0600 C.3       1 <0>        -0.1207
     29 C22        -9.0013   -8.2657   -5.9097 C.3       1 <0>        -0.1192
     30 C23        -8.5968   -7.3903   -4.7219 C.3       1 <0>        -0.1091
     31 C24        -5.6202   -8.7590   -1.9242 C.2       1 <0>         0.3287
     32 O2         -5.8680   -8.8842   -0.7489 O.2       1 <0>        -0.3514
     33 C25        -5.4854   -9.9780   -2.7999 C.3       1 <0>         0.2474
     34 C26        -4.8621  -11.0987   -2.0083 C.2       1 <0>         0.4836
     35 O3         -4.9706  -11.1215   -0.8006 O.2       1 <0>        -0.4706
     36 N7         -4.1841  -12.0757   -2.6425 N.am      1 <0>        -0.7062
     37 C27        -3.5781  -13.1652   -1.8730 C.3       1 <0>         0.1106
     38 C28        -2.8737  -14.1326   -2.8264 C.3       1 <0>        -0.1679
     39 F1         -6.7505  -10.3718   -3.2490 F         1 <0>        -0.1453
     40 F2         -4.6738   -9.6756   -3.8985 F         1 <0>        -0.1641
     41 H1          2.6327    1.5503   -4.3188 H         1 <0>         0.0577
     42 H2          1.0286    1.4567   -5.0846 H         1 <0>         0.0559
     43 H3          1.2096    2.2246   -3.4891 H         1 <0>         0.0558
     44 H4          1.6768   -0.7279   -4.1067 H         1 <0>         0.0696
     45 H5          1.8578    0.0401   -2.5112 H         1 <0>         0.0696
     46 H6         -0.5329    0.6966   -2.5559 H         1 <0>         0.1020
     47 H7         -0.7140   -0.0714   -4.1514 H         1 <0>         0.1019
     48 H8         -0.9788   -4.8015   -0.8511 H         1 <0>         0.1770
     49 H9          3.0317   -2.9048   -2.1893 H         1 <0>         0.1499
     50 H10         4.9354   -4.4122   -1.6678 H         1 <0>         0.1439
     51 H11         4.4979   -6.5787   -0.5865 H         1 <0>         0.1622
     52 H12         0.4141   -5.8514   -0.4963 H         1 <0>         0.1536
     53 H13        -3.3037   -4.7974   -0.0272 H         1 <0>         0.1194
     54 H14        -4.8639   -3.9717   -0.2560 H         1 <0>         0.1435
     55 H15        -5.1493   -6.6622   -0.5403 H         1 <0>         0.4119
     56 H16        -4.7085   -7.4236   -3.3169 H         1 <0>         0.1305
     57 H17        -7.5470   -6.9599   -2.3008 H         1 <0>         0.0768
     58 H18        -6.6841   -5.8616   -3.4042 H         1 <0>         0.0925
     59 H19        -7.1744   -8.8196   -3.9638 H         1 <0>         0.0886
     60 H20        -6.2153   -6.5099   -5.7138 H         1 <0>         0.0662
     61 H21        -5.1981   -7.8296   -5.0875 H         1 <0>         0.0644
     62 H22        -5.9041   -8.2809   -7.4213 H         1 <0>         0.0621
     63 H23        -6.5931   -9.4812   -6.3020 H         1 <0>         0.0603
     64 H24        -8.0288   -7.0040   -7.3598 H         1 <0>         0.0618
     65 H25        -8.3037   -8.6755   -7.9062 H         1 <0>         0.0607
     66 H26       -10.0051   -7.9940   -6.2361 H         1 <0>         0.0626
     67 H27        -8.9880   -9.3136   -5.6099 H         1 <0>         0.0615
     68 H28        -9.2991   -7.5426   -3.9024 H         1 <0>         0.0619
     69 H29        -8.6101   -6.3424   -5.0217 H         1 <0>         0.0643
     70 H30        -4.0973  -12.0576   -3.6085 H         1 <0>         0.4101
     71 H31        -2.8527  -12.7544   -1.1708 H         1 <0>         0.0768
     72 H32        -4.3545  -13.6975   -1.3235 H         1 <0>         0.0774
     73 H33        -3.5991  -14.5434   -3.5286 H         1 <0>         0.0658
     74 H34        -2.0973  -13.6003   -3.3759 H         1 <0>         0.0657
     75 H35        -2.4229  -14.9432   -2.2539 H         1 <0>         0.0817
@<TRIPOS>BOND
     1    1    2 1
     2    1   41 1
     3    1   42 1
     4    1   43 1
     5    2    3 1
     6    2   44 1
     7    2   45 1
     8    3    4 1
     9    3   46 1
    10    3   47 1
    11    4   12 2
    12    4    5 1
    13    5    9 1
    14    5    6 2
    15    6    7 1
    16    7    8 2
    17    8    9 1
    18    8   19 1
    19    9   10 1
    20   10   11 2
    21   10   48 1
    22   11   12 1
    23   11   13 1
    24   13   18 ar
    25   13   14 ar
    26   14   15 ar
    27   14   49 1
    28   15   16 ar
    29   15   50 1
    30   16   17 ar
    31   16   51 1
    32   17   18 ar
    33   18   52 1
    34   19   20 1
    35   19   53 1
    36   19   54 1
    37   20   21 2
    38   20   22 am
    39   22   23 1
    40   22   55 1
    41   23   24 1
    42   23   31 1
    43   23   56 1
    44   24   25 1
    45   24   57 1
    46   24   58 1
    47   25   30 1
    48   25   26 1
    49   25   59 1
    50   26   27 1
    51   26   60 1
    52   26   61 1
    53   27   28 1
    54   27   62 1
    55   27   63 1
    56   28   29 1
    57   28   64 1
    58   28   65 1
    59   29   30 1
    60   29   66 1
    61   29   67 1
    62   30   68 1
    63   30   69 1
    64   31   32 2
    65   31   33 1
    66   33   34 1
    67   33   39 1
    68   33   40 1
    69   34   35 2
    70   34   36 am
    71   36   37 1
    72   36   70 1
    73   37   38 1
    74   37   71 1
    75   37   72 1
    76   38   73 1
    77   38   74 1
    78   38   75 1
@<TRIPOS>MOLECULE
CHEMBL43347__1
   75    78     0     0     0
SMALL
USER_CHARGES

@<TRIPOS>ATOM
      1 C1          2.2744    0.4583   -2.0556 C.3       1 <0>        -0.1560
      2 C2          1.9865   -1.0204   -1.7880 C.3       1 <0>        -0.1102
      3 C3          0.4750   -1.2356   -1.6879 C.3       1 <0>        -0.0683
      4 C4          0.1914   -2.6920   -1.4243 C.2       1 <0>         0.2500
      5 C5         -1.1378   -3.1416   -1.2971 C.2       1 <0>         0.1311
      6 N1         -2.3187   -2.5531   -1.3552 N.2       1 <0>        -0.2394
      7 N2         -3.2420   -3.4310   -1.1682 N.2       1 <0>        -0.2268
      8 C6         -2.7109   -4.6144   -0.9824 C.2       1 <0>         0.1796
      9 N3         -1.3713   -4.4768   -1.0564 N.pl3     1 <0>        -0.3590
     10 C7         -0.3120   -5.3295   -0.9472 C.2       1 <0>         0.0143
     11 C8          0.9546   -4.8478   -1.0776 C.2       1 <0>         0.1339
     12 N4          1.1797   -3.5454   -1.3178 N.2       1 <0>        -0.4473
     13 C9          2.1047   -5.7773   -0.9583 C.ar      1 <0>        -0.0933
     14 C10         3.4148   -5.3059   -1.0826 C.ar      1 <0>        -0.0323
     15 C11         4.4531   -6.2132   -0.9629 C.ar      1 <0>        -0.1712
     16 C12         4.1639   -7.5450   -0.7263 C.ar      1 <0>         0.1109
     17 N5          2.9172   -7.9605   -0.6137 N.ar      1 <0>        -0.4779
     18 C13         1.8968   -7.1333   -0.7149 C.ar      1 <0>         0.1175
     19 C14        -3.4612   -5.8970   -0.7310 C.3       1 <0>        -0.0552
     20 C15        -3.7636   -6.5681   -2.0460 C.2       1 <0>         0.5182
     21 O1         -3.4051   -6.0554   -3.0850 O.2       1 <0>        -0.4968
     22 N6         -4.4323   -7.7380   -2.0674 N.am      1 <0>        -0.7157
     23 C16        -4.7262   -8.3905   -3.3457 C.3       1 <0>         0.1032
     24 C17        -3.5260   -9.2370   -3.7741 C.3       1 <0>        -0.1270
     25 C18        -2.3304   -8.3234   -4.0514 C.3       1 <0>        -0.0755
     26 C19        -2.6417   -7.4262   -5.2510 C.3       1 <0>        -0.1095
     27 C20        -1.4461   -6.5125   -5.5283 C.3       1 <0>        -0.1074
     28 C21        -0.2132   -7.3649   -5.8353 C.3       1 <0>        -0.1206
     29 C22         0.0980   -8.2622   -4.6357 C.3       1 <0>        -0.1126
     30 C23        -1.0975   -9.1758   -4.3584 C.3       1 <0>        -0.1151
     31 C24        -5.9359   -9.2758   -3.1914 C.2       1 <0>         0.3428
     32 O2         -6.2448   -9.6914   -2.1005 O.2       1 <0>        -0.3842
     33 C25        -6.7602   -9.6426   -4.3986 C.3       1 <0>         0.2450
     34 C26        -7.3234   -8.3912   -5.0213 C.2       1 <0>         0.4885
     35 O3         -6.7812   -7.3229   -4.8325 O.2       1 <0>        -0.4840
     36 N7         -8.4298   -8.4592   -5.7880 N.am      1 <0>        -0.7001
     37 C27        -8.9773   -7.2427   -6.3934 C.3       1 <0>         0.1093
     38 C28       -10.2239   -7.5947   -7.2076 C.3       1 <0>        -0.1685
     39 F1         -5.9536  -10.3048   -5.3303 F         1 <0>        -0.1543
     40 F2         -7.8091  -10.4826   -4.0093 F         1 <0>        -0.1616
     41 H1          3.3512    0.6116   -2.1269 H         1 <0>         0.0575
     42 H2          1.8022    0.7568   -2.9915 H         1 <0>         0.0557
     43 H3          1.8751    1.0598   -1.2390 H         1 <0>         0.0556
     44 H4          2.3859   -1.6219   -2.6045 H         1 <0>         0.0695
     45 H5          2.4588   -1.3189   -0.8521 H         1 <0>         0.0694
     46 H6          0.0756   -0.6341   -0.8713 H         1 <0>         0.1012
     47 H7          0.0027   -0.9371   -2.6238 H         1 <0>         0.1013
     48 H8         -0.4772   -6.3799   -0.7581 H         1 <0>         0.1753
     49 H9          3.6118   -4.2602   -1.2677 H         1 <0>         0.1492
     50 H10         5.4780   -5.8850   -1.0535 H         1 <0>         0.1431
     51 H11         4.9716   -8.2558   -0.6327 H         1 <0>         0.1615
     52 H12         0.8900   -7.5104   -0.6127 H         1 <0>         0.1525
     53 H13        -2.8520   -6.5598   -0.1164 H         1 <0>         0.1170
     54 H14        -4.3943   -5.6764   -0.2126 H         1 <0>         0.1396
     55 H15        -4.7190   -8.1481   -1.2364 H         1 <0>         0.4084
     56 H16        -4.9251   -7.6324   -4.1033 H         1 <0>         0.1549
     57 H17        -3.2718   -9.9363   -2.9776 H         1 <0>         0.0750
     58 H18        -3.7767   -9.7917   -4.6783 H         1 <0>         0.0856
     59 H19        -2.1353   -7.7045   -3.1757 H         1 <0>         0.0741
     60 H20        -2.8368   -8.0451   -6.1268 H         1 <0>         0.0509
     61 H21        -3.5200   -6.8189   -5.0323 H         1 <0>         0.0813
     62 H22        -1.6679   -5.8733   -6.3829 H         1 <0>         0.0551
     63 H23        -1.2510   -5.8936   -4.6526 H         1 <0>         0.0572
     64 H24        -0.4083   -7.9839   -6.7110 H         1 <0>         0.0601
     65 H25         0.6385   -6.7141   -6.0329 H         1 <0>         0.0554
     66 H26         0.9763   -8.8695   -4.8544 H         1 <0>         0.0593
     67 H27         0.2931   -7.6432   -3.7600 H         1 <0>         0.0538
     68 H28        -0.8758   -9.8150   -3.5038 H         1 <0>         0.0591
     69 H29        -1.2926   -9.7948   -5.2342 H         1 <0>         0.0628
     70 H30        -8.8635   -9.3136   -5.9390 H         1 <0>         0.4113
     71 H31        -9.2438   -6.5346   -5.6087 H         1 <0>         0.0787
     72 H32        -8.2301   -6.7948   -7.0485 H         1 <0>         0.0799
     73 H33        -9.9574   -8.3028   -7.9923 H         1 <0>         0.0660
     74 H34       -10.9712   -8.0426   -6.5525 H         1 <0>         0.0658
     75 H35       -10.6313   -6.6896   -7.6580 H         1 <0>         0.0823
@<TRIPOS>BOND
     1    1    2 1
     2    1   41 1
     3    1   42 1
     4    1   43 1
     5    2    3 1
     6    2   44 1
     7    2   45 1
     8    3    4 1
     9    3   46 1
    10    3   47 1
    11    4   12 2
    12    4    5 1
    13    5    9 1
    14    5    6 2
    15    6    7 1
    16    7    8 2
    17    8    9 1
    18    8   19 1
    19    9   10 1
    20   10   11 2
    21   10   48 1
    22   11   12 1
    23   11   13 1
    24   13   18 ar
    25   13   14 ar
    26   14   15 ar
    27   14   49 1
    28   15   16 ar
    29   15   50 1
    30   16   17 ar
    31   16   51 1
    32   17   18 ar
    33   18   52 1
    34   19   20 1
    35   19   53 1
    36   19   54 1
    37   20   21 2
    38   20   22 am
    39   22   23 1
    40   22   55 1
    41   23   24 1
    42   23   31 1
    43   23   56 1
    44   24   25 1
    45   24   57 1
    46   24   58 1
    47   25   30 1
    48   25   26 1
    49   25   59 1
    50   26   27 1
    51   26   60 1
    52   26   61 1
    53   27   28 1
    54   27   62 1
    55   27   63 1
    56   28   29 1
    57   28   64 1
    58   28   65 1
    59   29   30 1
    60   29   66 1
    61   29   67 1
    62   30   68 1
    63   30   69 1
    64   31   32 2
    65   31   33 1
    66   33   34 1
    67   33   39 1
    68   33   40 1
    69   34   35 2
    70   34   36 am
    71   36   37 1
    72   36   70 1
    73   37   38 1
    74   37   71 1
    75   37   72 1
    76   38   73 1
    77   38   74 1
    78   38   75 1
@<TRIPOS>MOLECULE
CHEMBL121731
   88    91     0     0     0
SMALL
USER_CHARGES

@<TRIPOS>ATOM
      1 C1         -0.4321    1.0751   -0.2257 C.ar      1 <0>        -0.1040
      2 C2          0.7355    1.8182   -0.2221 C.ar      1 <0>        -0.1227
      3 C3          1.9602    1.1845   -0.2150 C.ar      1 <0>        -0.0913
      4 C4          2.0204   -0.2125   -0.2109 C.ar      1 <0>        -0.0848
      5 C5          0.8362   -0.9562   -0.2141 C.ar      1 <0>        -0.0982
      6 C6         -0.3808   -0.3079   -0.2218 C.ar      1 <0>        -0.1230
      7 C7          3.3238   -0.8968   -0.2037 C.2       1 <0>        -0.0020
      8 C8          3.3778   -2.2438   -0.1998 C.2       1 <0>        -0.2245
      9 C9          4.6743   -2.9245   -0.1927 C.2       1 <0>         0.5476
     10 O1          5.7029   -2.2742   -0.1903 O.2       1 <0>        -0.5394
     11 N1          4.7283   -4.2711   -0.1887 N.am      1 <0>        -0.7089
     12 C10         6.0254   -4.9521   -0.1816 C.3       1 <0>         0.1034
     13 H1          6.7360   -4.3741    0.4091 H         1 <0>         0.1320
     14 C11         5.8668   -6.3451    0.4311 C.3       1 <0>         0.0562
     15 O2          4.5178   -6.7870    0.2665 O.3       1 <0>        -0.3614
     16 C12         4.3259   -7.9049   -0.4513 C.2       1 <0>         0.4638
     17 O3          5.1902   -8.7479   -0.4992 O.2       1 <0>        -0.4803
     18 C13         3.0323   -8.1089   -1.1969 C.3       1 <0>        -0.1187
     19 C14         3.3314   -8.6308   -2.6037 C.3       1 <0>        -0.1403
     20 C15         2.7888   -7.6443   -3.6397 C.3       1 <0>        -0.1363
     21 C16         3.7497   -7.5729   -4.8282 C.3       1 <0>         0.0944
     22 H2          3.2610   -7.9761   -5.7152 H         1 <0>         0.0959
     23 O4          4.1161   -6.2119   -5.0633 O.3       1 <0>        -0.3477
     24 C17         5.3833   -5.8657   -4.7875 C.2       1 <0>         0.4048
     25 O5          6.2101   -6.7203   -4.5732 O.2       1 <0>        -0.3998
     26 C18         5.7750   -4.4111   -4.7455 C.3       1 <0>         0.1098
     27 H3          4.9314   -3.8177   -4.3927 H         1 <0>         0.0778
     28 C19         6.9596   -4.2290   -3.7945 C.3       1 <0>         0.1488
     29 H4          7.5554   -3.3725   -4.1099 H         1 <0>         0.0992
     30 N2          6.4297   -3.9937   -2.4263 N.am      1 <0>        -0.7205
     31 C20         6.5334   -5.0800   -1.5946 C.2       1 <0>         0.5019
     32 O6          7.0220   -6.1183   -1.9872 O.2       1 <0>        -0.4834
     33 C21         7.8257   -5.4902   -3.8027 C.3       1 <0>        -0.1551
     34 C22         9.0164   -5.2974   -2.8615 C.3       1 <0>        -0.0723
     35 C23         9.9173   -4.1842   -3.4001 C.3       1 <0>        -0.1219
     36 C24        11.1080   -3.9914   -2.4588 C.3       1 <0>        -0.1176
     37 C25        11.9048   -5.2946   -2.3708 C.3       1 <0>        -0.1184
     38 C26        11.0039   -6.4078   -1.8322 C.3       1 <0>        -0.1188
     39 C27         9.8132   -6.6006   -2.7734 C.3       1 <0>        -0.1002
     40 O7          6.1458   -3.9796   -6.0563 O.3       1 <0>        -0.5343
     41 C28         5.0041   -8.3929   -4.5198 C.3       1 <0>         0.0332
     42 N3          5.8749   -8.4191   -5.7026 N.3       1 <0>        -0.5053
     43 C29         5.2438   -9.1589   -6.8052 C.3       1 <0>         0.0024
     44 C30         6.1566   -9.1107   -8.0333 C.3       1 <0>         0.0680
     45 O8          7.4390   -9.6418   -7.6891 O.3       1 <0>        -0.3874
     46 C31         8.0826   -8.9446   -6.6190 C.3       1 <0>         0.0657
     47 C32         7.1893   -8.9912   -5.3765 C.3       1 <0>         0.0328
     48 H5         -1.3883    1.5772   -0.2272 H         1 <0>         0.1256
     49 H6          0.6873    2.8971   -0.2253 H         1 <0>         0.1276
     50 H7          2.8705    1.7657   -0.2129 H         1 <0>         0.1291
     51 H8          0.8747   -2.0355   -0.2113 H         1 <0>         0.1274
     52 H9         -1.2962   -0.8809   -0.2243 H         1 <0>         0.1268
     53 H10         4.2366   -0.3197   -0.2016 H         1 <0>         0.1382
     54 H11         2.4649   -2.8209   -0.2019 H         1 <0>         0.1319
     55 H12         3.9084   -4.7894   -0.1907 H         1 <0>         0.4137
     56 H13         6.5406   -7.0409   -0.0688 H         1 <0>         0.1167
     57 H14         6.1088   -6.3046    1.4932 H         1 <0>         0.1036
     58 H15         2.4161   -8.8331   -0.6640 H         1 <0>         0.1121
     59 H16         2.4998   -7.1604   -1.2668 H         1 <0>         0.0983
     60 H17         4.4089   -8.7354   -2.7310 H         1 <0>         0.1013
     61 H18         2.8535   -9.6009   -2.7405 H         1 <0>         0.0824
     62 H19         1.8103   -7.9798   -3.9832 H         1 <0>         0.0833
     63 H20         2.6962   -6.6569   -3.1875 H         1 <0>         0.0812
     64 H21         6.0457   -3.1481   -2.1463 H         1 <0>         0.4163
     65 H22         7.2320   -6.3409   -3.4681 H         1 <0>         0.1976
     66 H23         8.1882   -5.6755   -4.8139 H         1 <0>         0.0507
     67 H24         8.6552   -5.0247   -1.8699 H         1 <0>         0.0615
     68 H25        10.2785   -4.4570   -4.3917 H         1 <0>         0.0570
     69 H26         9.3496   -3.2558   -3.4628 H         1 <0>         0.0529
     70 H27        11.7498   -3.1983   -2.8426 H         1 <0>         0.0553
     71 H28        10.7468   -3.7187   -1.4672 H         1 <0>         0.0561
     72 H29        12.2659   -5.5673   -3.3624 H         1 <0>         0.0589
     73 H30        12.7530   -5.1572   -1.7002 H         1 <0>         0.0557
     74 H31        11.5715   -7.3362   -1.7694 H         1 <0>         0.0560
     75 H32        10.6427   -6.1351   -0.8406 H         1 <0>         0.0558
     76 H33         9.1714   -7.3937   -2.3897 H         1 <0>         0.0640
     77 H34        10.1744   -6.8733   -3.7650 H         1 <0>         0.0527
     78 H35         5.4413   -4.0666   -6.7130 H         1 <0>         0.3892
     79 H36         5.5385   -7.9393   -3.6851 H         1 <0>         0.1234
     80 H37         4.7171   -9.4111   -4.2572 H         1 <0>         0.0291
     81 H38         5.0899  -10.1959   -6.5066 H         1 <0>         0.0388
     82 H39         4.2838   -8.7028   -7.0470 H         1 <0>         0.0791
     83 H40         5.7195   -9.7057   -8.8352 H         1 <0>         0.0932
     84 H41         6.2672   -8.0780   -8.3642 H         1 <0>         0.0560
     85 H42         9.0385   -9.4195   -6.3980 H         1 <0>         0.0937
     86 H43         8.2492   -7.9071   -6.9087 H         1 <0>         0.0585
     87 H44         7.6495   -8.4127   -4.5755 H         1 <0>         0.0977
     88 H45         7.0665  -10.0255   -5.0551 H         1 <0>         0.0322
@<TRIPOS>BOND
     1    1    6 ar
     2    1    2 ar
     3    1   48 1
     4    2    3 ar
     5    2   49 1
     6    3    4 ar
     7    3   50 1
     8    4    5 ar
     9    4    7 1
    10    5    6 ar
    11    5   51 1
    12    6   52 1
    13    7    8 2
    14    7   53 1
    15    8    9 1
    16    8   54 1
    17    9   10 2
    18    9   11 am
    19   11   12 1
    20   11   55 1
    21   12   13 1
    22   12   31 1
    23   12   14 1
    24   14   15 1
    25   14   56 1
    26   14   57 1
    27   15   16 1
    28   16   17 2
    29   16   18 1
    30   18   19 1
    31   18   58 1
    32   18   59 1
    33   19   20 1
    34   19   60 1
    35   19   61 1
    36   20   21 1
    37   20   62 1
    38   20   63 1
    39   21   22 1
    40   21   23 1
    41   21   41 1
    42   23   24 1
    43   24   25 2
    44   24   26 1
    45   26   27 1
    46   26   28 1
    47   26   40 1
    48   28   29 1
    49   28   30 1
    50   28   33 1
    51   30   31 am
    52   30   64 1
    53   31   32 2
    54   33   34 1
    55   33   65 1
    56   33   66 1
    57   34   39 1
    58   34   35 1
    59   34   67 1
    60   35   36 1
    61   35   68 1
    62   35   69 1
    63   36   37 1
    64   36   70 1
    65   36   71 1
    66   37   38 1
    67   37   72 1
    68   37   73 1
    69   38   39 1
    70   38   74 1
    71   38   75 1
    72   39   76 1
    73   39   77 1
    74   40   78 1
    75   41   42 1
    76   41   79 1
    77   41   80 1
    78   42   47 1
    79   42   43 1
    80   43   44 1
    81   43   81 1
    82   43   82 1
    83   44   45 1
    84   44   83 1
    85   44   84 1
    86   45   46 1
    87   46   47 1
    88   46   85 1
    89   46   86 1
    90   47   87 1
    91   47   88 1
@<TRIPOS>MOLECULE
CHEMBL371426
   73    77     0     0     0
SMALL
USER_CHARGES

@<TRIPOS>ATOM
      1 C1          0.7368    1.6878    1.8165 C.3       1 <0>         0.0269
      2 O1          0.5828    0.2833    1.6021 O.3       1 <0>        -0.3181
      3 C2          0.8867   -0.1888    0.3645 C.ar      1 <0>         0.1304
      4 C3          1.3297    0.6809   -0.6216 C.ar      1 <0>        -0.2077
      5 C4          1.6384    0.1984   -1.8785 C.ar      1 <0>        -0.0801
      6 C5          1.5062   -1.1502   -2.1544 C.ar      1 <0>        -0.1573
      7 C6          1.0646   -2.0187   -1.1737 C.ar      1 <0>        -0.0591
      8 C7          0.7600   -1.5420    0.0868 C.ar      1 <0>        -0.1229
      9 C8          0.2846   -2.4903    1.1572 C.3       1 <0>         0.1169
     10 O2          0.2379   -3.8180    0.6309 O.3       1 <0>        -0.3832
     11 C9         -0.2028   -4.8005    1.5703 C.3       1 <0>         0.0683
     12 C10        -0.2136   -6.1766    0.9017 C.3       1 <0>        -0.1185
     13 C11        -0.6855   -7.2286    1.9076 C.3       1 <0>         0.0626
     14 O3         -0.6956   -8.5139    1.2832 O.3       1 <0>        -0.3103
     15 C12        -1.0932   -9.5673    2.0453 C.ar      1 <0>         0.1361
     16 C13        -1.4708   -9.3650    3.3648 C.ar      1 <0>        -0.1980
     17 C14        -1.8748  -10.4344    4.1394 C.ar      1 <0>        -0.0503
     18 C15        -1.9029  -11.7124    3.5974 C.ar      1 <0>         0.0967
     19 C16        -1.5248  -11.9142    2.2767 C.ar      1 <0>        -0.0825
     20 C17        -1.1265  -10.8431    1.5015 C.ar      1 <0>        -0.1424
     21 N1         -2.3122  -12.7980    4.3829 N.am      1 <0>        -0.5537
     22 C18        -1.3221  -13.8069    4.7485 C.3       1 <0>         0.1111
     23 H1         -1.1482  -14.4674    3.8991 H         1 <0>         0.0988
     24 C19        -1.8256  -14.6293    5.9362 C.3       1 <0>         0.0452
     25 N2         -3.1895  -15.0980    5.6423 N.3       1 <0>        -0.6728
     26 C20        -4.1245  -13.9649    5.6372 C.3       1 <0>         0.0472
     27 C21        -3.5909  -12.8610    4.7689 C.2       1 <0>         0.4853
     28 O4         -4.3531  -11.9933    4.3985 O.2       1 <0>        -0.5286
     29 C22        -0.0114  -13.1166    5.1314 C.3       1 <0>         0.0493
     30 O5         -0.2153  -12.3230    6.3021 O.3       1 <0>        -0.3045
     31 C23         0.8578  -11.6388    6.7781 C.ar      1 <0>         0.1352
     32 C24         2.0856  -11.7328    6.1153 C.ar      1 <0>        -0.1896
     33 C25         3.1774  -11.0599    6.5674 C.ar      1 <0>        -0.0629
     34 C26         3.0750  -10.2569    7.7168 C.ar      1 <0>        -0.0836
     35 C27         4.1829   -9.5477    8.2111 C.ar      1 <0>        -0.0944
     36 C28         4.0481   -8.7793    9.3263 C.ar      1 <0>        -0.1280
     37 C29         2.8255   -8.6837    9.9885 C.ar      1 <0>        -0.1038
     38 C30         1.7309   -9.3560    9.5391 C.ar      1 <0>        -0.1164
     39 C31         1.8315  -10.1597    8.3902 C.ar      1 <0>        -0.0124
     40 C32         0.7218  -10.8638    7.8945 C.ar      1 <0>        -0.1535
     41 H2          1.7750    1.9702    1.6421 H         1 <0>         0.0566
     42 H3          0.0913    2.2333    1.1282 H         1 <0>         0.0567
     43 H4          0.4616    1.9310    2.8428 H         1 <0>         0.1014
     44 H5          1.4327    1.7343   -0.4068 H         1 <0>         0.1298
     45 H6          1.9829    0.8751   -2.6466 H         1 <0>         0.1256
     46 H7          1.7481   -1.5255   -3.1378 H         1 <0>         0.1258
     47 H8          0.9619   -3.0715   -1.3918 H         1 <0>         0.1395
     48 H9          0.9723   -2.4584    2.0023 H         1 <0>         0.0640
     49 H10        -0.7112   -2.1952    1.4878 H         1 <0>         0.0641
     50 H11         0.4748   -4.8166    2.4240 H         1 <0>         0.0541
     51 H12        -1.2088   -4.5534    1.9095 H         1 <0>         0.0545
     52 H13        -0.8912   -6.1605    0.0481 H         1 <0>         0.0848
     53 H14         0.7924   -6.4237    0.5626 H         1 <0>         0.0843
     54 H15        -0.0079   -7.2447    2.7613 H         1 <0>         0.0655
     55 H16        -1.6914   -6.9815    2.2468 H         1 <0>         0.0662
     56 H17        -1.4486   -8.3709    3.7863 H         1 <0>         0.1310
     57 H18        -2.1684  -10.2768    5.1667 H         1 <0>         0.1243
     58 H19        -1.5460  -12.9081    1.8546 H         1 <0>         0.1299
     59 H20        -0.8366  -10.9992    0.4730 H         1 <0>         0.1365
     60 H21        -1.1701  -15.4863    6.0915 H         1 <0>         0.1037
     61 H22        -1.8375  -14.0084    6.8320 H         1 <0>         0.0982
     62 H23        -3.2197  -15.5956    4.7650 H         1 <0>         0.3495
     63 H24        -5.0905  -14.2946    5.2549 H         1 <0>         0.1163
     64 H25        -4.2475  -13.5928    6.6544 H         1 <0>         0.1142
     65 H26         0.7509  -13.8696    5.3311 H         1 <0>         0.0807
     66 H27         0.3154  -12.4772    4.3114 H         1 <0>         0.0733
     67 H28         2.1679  -12.3487    5.2320 H         1 <0>         0.1283
     68 H29         4.1195  -11.1424    6.0458 H         1 <0>         0.1315
     69 H30         5.1367   -9.6124    7.7087 H         1 <0>         0.1266
     70 H31         4.9014   -8.2357    9.7040 H         1 <0>         0.1234
     71 H32         2.7456   -8.0672   10.8717 H         1 <0>         0.1241
     72 H33         0.7900   -9.2728   10.0627 H         1 <0>         0.1276
     73 H34        -0.2326  -10.7956    8.3952 H         1 <0>         0.1327
@<TRIPOS>BOND
     1    1    2 1
     2    1   41 1
     3    1   42 1
     4    1   43 1
     5    2    3 1
     6    3    8 ar
     7    3    4 ar
     8    4    5 ar
     9    4   44 1
    10    5    6 ar
    11    5   45 1
    12    6    7 ar
    13    6   46 1
    14    7    8 ar
    15    7   47 1
    16    8    9 1
    17    9   10 1
    18    9   48 1
    19    9   49 1
    20   10   11 1
    21   11   12 1
    22   11   50 1
    23   11   51 1
    24   12   13 1
    25   12   52 1
    26   12   53 1
    27   13   14 1
    28   13   54 1
    29   13   55 1
    30   14   15 1
    31   15   20 ar
    32   15   16 ar
    33   16   17 ar
    34   16   56 1
    35   17   18 ar
    36   17   57 1
    37   18   19 ar
    38   18   21 1
    39   19   20 ar
    40   19   58 1
    41   20   59 1
    42   21   27 am
    43   21   22 1
    44   22   23 1
    45   22   24 1
    46   22   29 1
    47   24   25 1
    48   24   60 1
    49   24   61 1
    50   25   26 1
    51   25   62 1
    52   26   27 1
    53   26   63 1
    54   26   64 1
    55   27   28 2
    56   29   30 1
    57   29   65 1
    58   29   66 1
    59   30   31 1
    60   31   40 ar
    61   31   32 ar
    62   32   33 ar
    63   32   67 1
    64   33   34 ar
    65   33   68 1
    66   34   39 ar
    67   34   35 ar
    68   35   36 ar
    69   35   69 1
    70   36   37 ar
    71   36   70 1
    72   37   38 ar
    73   37   71 1
    74   38   39 ar
    75   38   72 1
    76   39   40 ar
    77   40   73 1
@<TRIPOS>MOLECULE
CHEMBL371426__1
   74    78     0     0     0
SMALL
USER_CHARGES

@<TRIPOS>ATOM
      1 C1         -2.1566    1.6446   -0.0940 C.3       1 <0>         0.0264
      2 O1         -1.8499    0.2507   -0.1665 O.3       1 <0>        -0.3190
      3 C2         -0.9032   -0.2180    0.6886 C.ar      1 <0>         0.1309
      4 C3         -0.2863    0.6449    1.5831 C.ar      1 <0>        -0.2067
      5 C4          0.6752    0.1659    2.4514 C.ar      1 <0>        -0.0783
      6 C5          1.0231   -1.1723    2.4297 C.ar      1 <0>        -0.1572
      7 C6          0.4103   -2.0339    1.5391 C.ar      1 <0>        -0.0596
      8 C7         -0.5562   -1.5609    0.6724 C.ar      1 <0>        -0.1254
      9 C8         -1.2284   -2.5019   -0.2939 C.3       1 <0>         0.1184
     10 O2         -0.7042   -3.8196   -0.1181 O.3       1 <0>        -0.3824
     11 C9         -1.2778   -4.7946   -0.9912 C.3       1 <0>         0.0685
     12 C10        -0.6456   -6.1604   -0.7162 C.3       1 <0>        -0.1196
     13 C11        -1.2598   -7.2043   -1.6510 C.3       1 <0>         0.0630
     14 O3         -0.6692   -8.4800   -1.3941 O.3       1 <0>        -0.3061
     15 C12        -1.1070   -9.5254   -2.1453 C.ar      1 <0>         0.1573
     16 C13        -2.0805   -9.3242   -3.1128 C.ar      1 <0>        -0.1985
     17 C14        -2.5256  -10.3855   -3.8761 C.ar      1 <0>        -0.0515
     18 C15        -1.9984  -11.6541   -3.6749 C.ar      1 <0>         0.0837
     19 C16        -1.0240  -11.8548   -2.7063 C.ar      1 <0>        -0.0464
     20 C17        -0.5758  -10.7916   -1.9477 C.ar      1 <0>        -0.1420
     21 N1         -2.4498  -12.7315   -4.4486 N.am      1 <0>        -0.5517
     22 C18        -3.2302  -13.7825   -3.8002 C.3       1 <0>         0.1190
     23 H1         -2.5619  -14.4355   -3.2388 H         1 <0>         0.1203
     24 C19        -3.9755  -14.6032   -4.8544 C.3       1 <0>        -0.0165
     25 N2         -3.0188  -15.0277   -5.8883 N.4       1 <0>        -0.5024
     26 C20        -2.6107  -13.8534   -6.6694 C.3       1 <0>        -0.0142
     27 C21        -2.1537  -12.7542   -5.7531 C.2       1 <0>         0.4926
     28 O4         -1.4855  -11.8528   -6.2139 O.2       1 <0>        -0.4681
     29 C22        -4.2420  -13.1477   -2.8441 C.3       1 <0>         0.0505
     30 O5         -3.5467  -12.4844   -1.7864 O.3       1 <0>        -0.2955
     31 C23        -4.3029  -11.9391   -0.7978 C.ar      1 <0>         0.1205
     32 C24        -5.6967  -11.9456   -0.9118 C.ar      1 <0>        -0.1955
     33 C25        -6.4801  -11.4076    0.0609 C.ar      1 <0>        -0.0596
     34 C26        -5.8848  -10.8363    1.1991 C.ar      1 <0>        -0.0797
     35 C27        -6.6643  -10.2722    2.2233 C.ar      1 <0>        -0.0978
     36 C28        -6.0548   -9.7278    3.3118 C.ar      1 <0>        -0.1196
     37 C29        -4.6660   -9.7204    3.4279 C.ar      1 <0>        -0.0985
     38 C30        -3.8789  -10.2574    2.4562 C.ar      1 <0>        -0.1153
     39 C31        -4.4723  -10.8289    1.3172 C.ar      1 <0>        -0.0146
     40 C32        -3.6920  -11.3970    0.2968 C.ar      1 <0>        -0.1355
     41 H2         -1.2586    2.2256   -0.3041 H         1 <0>         0.0574
     42 H3         -2.9256    1.8860   -0.8278 H         1 <0>         0.1018
     43 H4         -2.5195    1.8852    0.9052 H         1 <0>         0.0573
     44 H5         -0.5575    1.6901    1.6001 H         1 <0>         0.1307
     45 H6          1.1559    0.8372    3.1476 H         1 <0>         0.1267
     46 H7          1.7751   -1.5448    3.1095 H         1 <0>         0.1262
     47 H8          0.6840   -3.0785    1.5239 H         1 <0>         0.1385
     48 H9         -2.3020   -2.5099   -0.1059 H         1 <0>         0.0638
     49 H10        -1.0407   -2.1694   -1.3148 H         1 <0>         0.0640
     50 H11        -2.3525   -4.8502   -0.8177 H         1 <0>         0.0533
     51 H12        -1.0912   -4.5097   -2.0266 H         1 <0>         0.0537
     52 H13         0.4291   -6.1049   -0.8897 H         1 <0>         0.0860
     53 H14        -0.8322   -6.4453    0.3192 H         1 <0>         0.0857
     54 H15        -2.3344   -7.2599   -1.4775 H         1 <0>         0.0670
     55 H16        -1.0731   -6.9194   -2.6864 H         1 <0>         0.0673
     56 H17        -2.4908   -8.3375   -3.2690 H         1 <0>         0.1335
     57 H18        -3.2838  -10.2288   -4.6290 H         1 <0>         0.1194
     58 H19        -0.6138  -12.8414   -2.5491 H         1 <0>         0.1272
     59 H20         0.1853  -10.9466   -1.1973 H         1 <0>         0.1390
     60 H21        -4.4209  -15.4810   -4.3863 H         1 <0>         0.1646
     61 H22        -4.7564  -13.9926   -5.3078 H         1 <0>         0.1479
     62 H23        -2.2089  -15.4403   -5.4503 H         1 <0>         0.4382
     63 H24        -1.7969  -14.1302   -7.3396 H         1 <0>         0.1734
     64 H25        -3.4567  -13.4995   -7.2585 H         1 <0>         0.1674
     65 H26        -4.8515  -12.4255   -3.3872 H         1 <0>         0.0779
     66 H27        -4.8836  -13.9236   -2.4265 H         1 <0>         0.0895
     67 H28        -6.1574  -12.3837   -1.7848 H         1 <0>         0.1239
     68 H29        -7.5553  -11.4190   -0.0408 H         1 <0>         0.1324
     69 H30        -7.7416  -10.2703    2.1470 H         1 <0>         0.1287
     70 H31        -6.6565   -9.2947    4.0971 H         1 <0>         0.1270
     71 H32        -4.2075   -9.2817    4.3018 H         1 <0>         0.1277
     72 H33        -2.8039  -10.2443    2.5595 H         1 <0>         0.1297
     73 H34        -2.6149  -11.4018    0.3757 H         1 <0>         0.1336
     74 H35        -3.4566  -15.7029   -6.4970 H         1 <0>         0.4458
@<TRIPOS>BOND
     1    1    2 1
     2    1   41 1
     3    1   42 1
     4    1   43 1
     5    2    3 1
     6    3    8 ar
     7    3    4 ar
     8    4    5 ar
     9    4   44 1
    10    5    6 ar
    11    5   45 1
    12    6    7 ar
    13    6   46 1
    14    7    8 ar
    15    7   47 1
    16    8    9 1
    17    9   10 1
    18    9   48 1
    19    9   49 1
    20   10   11 1
    21   11   12 1
    22   11   50 1
    23   11   51 1
    24   12   13 1
    25   12   52 1
    26   12   53 1
    27   13   14 1
    28   13   54 1
    29   13   55 1
    30   14   15 1
    31   15   20 ar
    32   15   16 ar
    33   16   17 ar
    34   16   56 1
    35   17   18 ar
    36   17   57 1
    37   18   19 ar
    38   18   21 1
    39   19   20 ar
    40   19   58 1
    41   20   59 1
    42   21   27 am
    43   21   22 1
    44   22   23 1
    45   22   24 1
    46   22   29 1
    47   24   25 1
    48   24   60 1
    49   24   61 1
    50   25   26 1
    51   25   62 1
    52   25   74 1
    53   26   27 1
    54   26   63 1
    55   26   64 1
    56   27   28 2
    57   29   30 1
    58   29   65 1
    59   29   66 1
    60   30   31 1
    61   31   40 ar
    62   31   32 ar
    63   32   33 ar
    64   32   67 1
    65   33   34 ar
    66   33   68 1
    67   34   39 ar
    68   34   35 ar
    69   35   36 ar
    70   35   69 1
    71   36   37 ar
    72   36   70 1
    73   37   38 ar
    74   37   71 1
    75   38   39 ar
    76   38   72 1
    77   39   40 ar
    78   40   73 1
@<TRIPOS>MOLECULE
CHEMBL150298
   89    90     0     0     0
SMALL
USER_CHARGES

@<TRIPOS>ATOM
      1 C1         -0.4400   -2.5060   -1.0951 C.3       1 <0>        -0.1515
      2 C2         -1.3034   -2.0508    0.0831 C.3       1 <0>        -0.0952
      3 C3         -0.6919   -2.5596    1.3901 C.3       1 <0>        -0.1482
      4 C4         -1.3649   -0.5223    0.1098 C.3       1 <0>        -0.1198
      5 C5         -2.0952   -0.0194   -1.1370 C.3       1 <0>         0.1163
      6 H1         -1.6218   -0.4336   -2.0272 H         1 <0>         0.1073
      7 C6         -3.5586   -0.4626   -1.0845 C.3       1 <0>         0.1167
      8 H2         -3.6076   -1.5509   -1.0490 H         1 <0>         0.1294
      9 C7         -4.2889    0.0403   -2.3313 C.3       1 <0>        -0.1301
     10 S1         -6.0240   -0.4852   -2.2690 S.3       1 <0>        -0.2196
     11 C8         -6.7396    0.1816   -3.7967 C.3       1 <0>        -0.0692
     12 C9         -8.1861   -0.2978   -3.9340 C.3       1 <0>        -0.1364
     13 C10        -6.7115    1.7106   -3.7481 C.3       1 <0>        -0.1449
     14 O1         -4.1792    0.0805    0.0826 O.3       1 <0>        -0.5308
     15 N1         -2.0293    1.4434   -1.1848 N.am      1 <0>        -0.7183
     16 C11        -0.9242    2.0531   -1.6573 C.2       1 <0>         0.5132
     17 O2         -0.0210    1.3933   -2.1261 O.2       1 <0>        -0.5065
     18 C12        -0.8107    3.5549   -1.6030 C.3       1 <0>         0.1280
     19 H3         -0.8717    3.8866   -0.5665 H         1 <0>         0.1315
     20 C13        -1.9512    4.1820   -2.4072 C.3       1 <0>        -0.0714
     21 C14        -1.9103    5.6804   -2.2525 C.2       1 <0>         0.0362
     22 C15        -2.4580    6.3873   -1.2456 C.2       1 <0>         0.0559
     23 N2         -2.1874    7.7058   -1.4944 N.pl3     1 <0>        -0.4998
     24 H4         -2.4520    8.4611   -0.9462 H         1 <0>         0.4669
     25 C16        -1.4832    7.7588   -2.6454 C.cat     1 <0>         0.3127
     26 N3         -1.3170    6.5434   -3.0906 N.pl3     1 <0>        -0.4734
     27 N4          0.4739    3.9684   -2.1732 N.am      1 <0>        -0.7081
     28 C17         1.0296    5.1393   -1.8035 C.2       1 <0>         0.5151
     29 O3          0.4663    5.8506   -0.9987 O.2       1 <0>        -0.5317
     30 C18         2.3510    5.5647   -2.3901 C.3       1 <0>         0.1557
     31 H5          2.2579    5.6477   -3.4729 H         1 <0>         0.1212
     32 C19         3.4193    4.5243   -2.0482 C.3       1 <0>        -0.0912
     33 C20         4.7105    4.8853   -2.7364 C.ar      1 <0>        -0.0754
     34 C21         4.9739    4.4076   -4.0065 C.ar      1 <0>        -0.1035
     35 C22         6.1583    4.7387   -4.6377 C.ar      1 <0>        -0.1092
     36 C23         7.0791    5.5481   -3.9990 C.ar      1 <0>        -0.1137
     37 C24         6.8153    6.0266   -2.7292 C.ar      1 <0>        -0.1077
     38 C25         5.6290    5.6989   -2.0997 C.ar      1 <0>        -0.1079
     39 N5          2.7375    6.8630   -1.8323 N.am      1 <0>        -0.7029
     40 C26         3.5638    7.6739   -2.5224 C.2       1 <0>         0.6515
     41 O4          3.9880    7.3282   -3.6073 O.2       1 <0>        -0.5392
     42 O5          3.9190    8.8671   -2.0098 O.3       1 <0>        -0.3574
     43 C27         4.7975    9.6752   -2.7955 C.3       1 <0>         0.1388
     44 C28         4.1383    9.9856   -4.1408 C.3       1 <0>        -0.1839
     45 C29         5.0864   10.9827   -2.0553 C.3       1 <0>        -0.1432
     46 C30         6.1084    8.9224   -3.0315 C.3       1 <0>        -0.1947
     47 H6         -0.3180   -3.5886   -1.0593 H         1 <0>         0.0588
     48 H7         -0.9246   -2.2258   -2.0304 H         1 <0>         0.0519
     49 H8          0.5378   -2.0280   -1.0351 H         1 <0>         0.0569
     50 H9         -2.3104   -2.4531   -0.0277 H         1 <0>         0.0744
     51 H10         0.3151   -2.1574    1.5008 H         1 <0>         0.0539
     52 H11        -1.3071   -2.2353    2.2294 H         1 <0>         0.0565
     53 H12        -0.6482   -3.6486    1.3710 H         1 <0>         0.0591
     54 H13        -1.9006   -0.1957    1.0012 H         1 <0>         0.0769
     55 H14        -0.3527   -0.1182    0.1258 H         1 <0>         0.0698
     56 H15        -4.2399    1.1287   -2.3669 H         1 <0>         0.0776
     57 H16        -3.8155   -0.3739   -3.2215 H         1 <0>         0.0911
     58 H17        -6.1591   -0.1654   -4.6515 H         1 <0>         0.0852
     59 H18        -8.7665    0.0493   -3.0792 H         1 <0>         0.0668
     60 H19        -8.6161    0.1029   -4.8520 H         1 <0>         0.0732
     61 H20        -8.2061   -1.3870   -3.9687 H         1 <0>         0.0680
     62 H21        -5.6810    2.0521   -3.6503 H         1 <0>         0.0475
     63 H22        -7.1415    2.1113   -4.6661 H         1 <0>         0.0655
     64 H23        -7.2920    2.0577   -2.8933 H         1 <0>         0.0695
     65 H24        -4.1723    1.0468    0.1181 H         1 <0>         0.3644
     66 H25        -2.7812    1.9730   -0.8764 H         1 <0>         0.3960
     67 H26        -1.8392    3.9222   -3.4599 H         1 <0>         0.1079
     68 H27        -2.9054    3.8046   -2.0394 H         1 <0>         0.1238
     69 H28        -3.0058    5.9902   -0.4038 H         1 <0>         0.2233
     70 H29        -1.1150    8.6578   -3.1173 H         1 <0>         0.2608
     71 H30         0.9244    3.3996   -2.8169 H         1 <0>         0.4214
     72 H31         3.5756    4.5048   -0.9697 H         1 <0>         0.0845
     73 H32         3.0904    3.5414   -2.3855 H         1 <0>         0.0911
     74 H33         4.2545    3.7752   -4.5055 H         1 <0>         0.1150
     75 H34         6.3644    4.3649   -5.6298 H         1 <0>         0.1198
     76 H35         8.0048    5.8062   -4.4918 H         1 <0>         0.1197
     77 H36         7.5349    6.6586   -2.2300 H         1 <0>         0.1175
     78 H37         5.4213    6.0757   -1.1091 H         1 <0>         0.1090
     79 H38         2.3989    7.1391   -0.9662 H         1 <0>         0.4128
     80 H39         3.2044   10.5219   -3.9727 H         1 <0>         0.0549
     81 H40         4.8084   10.6020   -4.7401 H         1 <0>         0.0726
     82 H41         3.9325    9.0541   -4.6681 H         1 <0>         0.0864
     83 H42         5.5560   10.7615   -1.0969 H         1 <0>         0.0679
     84 H43         5.7565   11.5991   -2.6546 H         1 <0>         0.0836
     85 H44         4.1525   11.5190   -1.8872 H         1 <0>         0.0648
     86 H45         5.9026    7.9909   -3.5588 H         1 <0>         0.1012
     87 H46         6.7785    9.5387   -3.6308 H         1 <0>         0.0694
     88 H47         6.5781    8.7012   -2.0731 H         1 <0>         0.0592
     89 H48        -0.8411    6.3023   -3.9007 H         1 <0>         0.4588
@<TRIPOS>BOND
     1    1    2 1
     2    1   47 1
     3    1   48 1
     4    1   49 1
     5    2    3 1
     6    2    4 1
     7    2   50 1
     8    3   51 1
     9    3   52 1
    10    3   53 1
    11    4    5 1
    12    4   54 1
    13    4   55 1
    14    5    6 1
    15    5    7 1
    16    5   15 1
    17    7    8 1
    18    7    9 1
    19    7   14 1
    20    9   10 1
    21    9   56 1
    22    9   57 1
    23   10   11 1
    24   11   12 1
    25   11   13 1
    26   11   58 1
    27   12   59 1
    28   12   60 1
    29   12   61 1
    30   13   62 1
    31   13   63 1
    32   13   64 1
    33   14   65 1
    34   15   16 am
    35   15   66 1
    36   16   17 2
    37   16   18 1
    38   18   19 1
    39   18   20 1
    40   18   27 1
    41   20   21 1
    42   20   67 1
    43   20   68 1
    44   21   26 1
    45   21   22 2
    46   22   23 1
    47   22   69 1
    48   23   24 1
    49   23   25 1
    50   25   26 2
    51   25   70 1
    52   26   89 1
    53   27   28 am
    54   27   71 1
    55   28   29 2
    56   28   30 1
    57   30   31 1
    58   30   32 1
    59   30   39 1
    60   32   33 1
    61   32   72 1
    62   32   73 1
    63   33   38 ar
    64   33   34 ar
    65   34   35 ar
    66   34   74 1
    67   35   36 ar
    68   35   75 1
    69   36   37 ar
    70   36   76 1
    71   37   38 ar
    72   37   77 1
    73   38   78 1
    74   39   40 am
    75   39   79 1
    76   40   41 2
    77   40   42 1
    78   42   43 1
    79   43   44 1
    80   43   45 1
    81   43   46 1
    82   44   80 1
    83   44   81 1
    84   44   82 1
    85   45   83 1
    86   45   84 1
    87   45   85 1
    88   46   86 1
    89   46   87 1
    90   46   88 1
@<TRIPOS>MOLECULE
CHEMBL150298__1
   88    89     0     0     0
SMALL
USER_CHARGES

@<TRIPOS>ATOM
      1 C1         -0.0187    1.5258    0.0104 C.3       1 <0>        -0.1491
      2 C2          0.0021   -0.0041    0.0020 C.3       1 <0>        -0.0912
      3 C3          0.7421   -0.5109    1.2415 C.3       1 <0>        -0.1403
      4 C4         -1.4333   -0.5336    0.0129 C.3       1 <0>        -0.1203
      5 C5         -1.4157   -2.0577   -0.1212 C.3       1 <0>         0.1173
      6 H1         -0.7891   -2.4841    0.6622 H         1 <0>         0.1065
      7 C6         -2.8406   -2.5981    0.0146 C.3       1 <0>         0.1192
      8 H2         -3.2417   -2.3238    0.9903 H         1 <0>         0.1235
      9 C7         -2.8229   -4.1221   -0.1195 C.3       1 <0>        -0.1275
     10 S1         -4.5123   -4.7629    0.0415 S.3       1 <0>        -0.2281
     11 C8         -4.3199   -6.5577   -0.1384 C.3       1 <0>        -0.0674
     12 C9         -5.6672   -7.2417    0.1023 C.3       1 <0>        -0.1343
     13 C10        -3.8301   -6.8790   -1.5518 C.3       1 <0>        -0.1468
     14 O1         -3.6620   -2.0391   -1.0125 O.3       1 <0>        -0.5361
     15 N1         -0.8765   -2.4263   -1.4325 N.am      1 <0>        -0.7206
     16 C11         0.4560   -2.5245   -1.6099 C.2       1 <0>         0.5138
     17 O2          1.2086   -2.3077   -0.6839 O.2       1 <0>        -0.5072
     18 C12         1.0106   -2.9037   -2.9588 C.3       1 <0>         0.1366
     19 H3          0.6999   -2.1669   -3.6996 H         1 <0>         0.1151
     20 C13         0.4819   -4.2828   -3.3583 C.3       1 <0>        -0.0493
     21 C14         0.9365   -4.6090   -4.7576 C.2       1 <0>        -0.0205
     22 C15         2.1146   -5.1569   -5.1117 C.2       1 <0>        -0.0009
     23 N2          2.1280   -5.2851   -6.4468 N.2       1 <0>        -0.4827
     24 H4         -0.6614   -4.0323   -5.9842 H         1 <0>         0.4146
     25 C16         1.0029   -4.8375   -6.9334 C.2       1 <0>         0.1931
     26 N3          0.2288   -4.4109   -5.9124 N.pl3     1 <0>        -0.5599
     27 N4          2.4736   -2.9421   -2.8921 N.am      1 <0>        -0.7083
     28 C17         3.2043   -2.7558   -4.0091 C.2       1 <0>         0.5195
     29 O3          2.6507   -2.5564   -5.0696 O.2       1 <0>        -0.5072
     30 C18         4.7092   -2.7954   -3.9404 C.3       1 <0>         0.1612
     31 H5          5.0308   -3.7706   -3.5750 H         1 <0>         0.1184
     32 C19         5.2051   -1.7051   -2.9883 C.3       1 <0>        -0.0917
     33 C20         6.6985   -1.8228   -2.8241 C.ar      1 <0>        -0.0656
     34 C21         7.2232   -2.6194   -1.8236 C.ar      1 <0>        -0.1031
     35 C22         8.5930   -2.7274   -1.6730 C.ar      1 <0>        -0.1111
     36 C23         9.4382   -2.0391   -2.5231 C.ar      1 <0>        -0.1198
     37 C24         8.9135   -1.2432   -3.5242 C.ar      1 <0>        -0.1093
     38 C25         7.5437   -1.1386   -3.6776 C.ar      1 <0>        -0.1076
     39 N5          5.2652   -2.5668   -5.2764 N.am      1 <0>        -0.6935
     40 C26         6.4907   -3.0350   -5.5854 C.2       1 <0>         0.6572
     41 O4          7.1344   -3.6466   -4.7559 O.2       1 <0>        -0.5484
     42 O5          7.0017   -2.8250   -6.8132 O.3       1 <0>        -0.3578
     43 C27         8.3057   -3.3492   -7.0716 C.3       1 <0>         0.1387
     44 C28         8.2907   -4.8679   -6.8868 C.3       1 <0>        -0.1847
     45 C29         8.7148   -3.0141   -8.5073 C.3       1 <0>        -0.1415
     46 C30         9.3078   -2.7267   -6.0973 C.3       1 <0>        -0.1918
     47 H6          1.0039    1.9031    0.0027 H         1 <0>         0.0529
     48 H7         -0.5459    1.8868   -0.8726 H         1 <0>         0.0497
     49 H8         -0.5289    1.8773    0.9072 H         1 <0>         0.0530
     50 H9          0.5123   -0.3556   -0.8948 H         1 <0>         0.0716
     51 H10         1.7647   -0.1336    1.2338 H         1 <0>         0.0485
     52 H11         0.2319   -0.1594    2.1383 H         1 <0>         0.0419
     53 H12         0.7568   -1.6008    1.2356 H         1 <0>         0.0701
     54 H13        -1.9156   -0.2570    0.9504 H         1 <0>         0.0750
     55 H14        -1.9862   -0.1019   -0.8214 H         1 <0>         0.0720
     56 H15        -2.4217   -4.3964   -1.0952 H         1 <0>         0.0819
     57 H16        -2.1964   -4.5486    0.6639 H         1 <0>         0.0909
     58 H17        -3.5935   -6.9199    0.5890 H         1 <0>         0.0848
     59 H18        -6.3937   -6.8794   -0.6251 H         1 <0>         0.0657
     60 H19        -5.5516   -8.3201   -0.0058 H         1 <0>         0.0720
     61 H20        -6.0162   -7.0128    1.1092 H         1 <0>         0.0659
     62 H21        -4.5566   -6.5167   -2.2792 H         1 <0>         0.0686
     63 H22        -2.8703   -6.3917   -1.7232 H         1 <0>         0.0516
     64 H23        -3.7145   -7.9574   -1.6599 H         1 <0>         0.0653
     65 H24        -3.3636   -2.2431   -1.9094 H         1 <0>         0.3675
     66 H25        -1.4784   -2.5997   -2.1731 H         1 <0>         0.3952
     67 H26         0.8659   -5.0332   -2.6673 H         1 <0>         0.0960
     68 H27        -0.6074   -4.2788   -3.3218 H         1 <0>         0.0804
     69 H28         2.9094   -5.4429   -4.4387 H         1 <0>         0.1521
     70 H29         0.7341   -4.8151   -7.9792 H         1 <0>         0.2027
     71 H30         2.9164   -3.1016   -2.0439 H         1 <0>         0.4126
     72 H31         4.9608   -0.7255   -3.3990 H         1 <0>         0.0810
     73 H32         4.7225   -1.8230   -2.0181 H         1 <0>         0.0901
     74 H33         6.5628   -3.1572   -1.1594 H         1 <0>         0.1157
     75 H34         9.0029   -3.3492   -0.8909 H         1 <0>         0.1167
     76 H35        10.5085   -2.1229   -2.4050 H         1 <0>         0.1156
     77 H36         9.5739   -0.7052   -4.1882 H         1 <0>         0.1145
     78 H37         7.1338   -0.5197   -4.4620 H         1 <0>         0.1090
     79 H38         4.7514   -2.0786   -5.9386 H         1 <0>         0.4127
     80 H39         7.5768   -5.3113   -7.5809 H         1 <0>         0.0583
     81 H40         9.2854   -5.2677   -7.0839 H         1 <0>         0.0670
     82 H41         7.9993   -5.1066   -5.8640 H         1 <0>         0.0882
     83 H42         8.7255   -1.9321   -8.6389 H         1 <0>         0.0649
     84 H43         9.7095   -3.4139   -8.7044 H         1 <0>         0.0791
     85 H44         8.0009   -3.4575   -9.2014 H         1 <0>         0.0658
     86 H45         9.0163   -2.9654   -5.0744 H         1 <0>         0.1022
     87 H46        10.3025   -3.1265   -6.2943 H         1 <0>         0.0645
     88 H47         9.3185   -1.6447   -6.2289 H         1 <0>         0.0560
@<TRIPOS>BOND
     1    1    2 1
     2    1   47 1
     3    1   48 1
     4    1   49 1
     5    2    3 1
     6    2    4 1
     7    2   50 1
     8    3   51 1
     9    3   52 1
    10    3   53 1
    11    4    5 1
    12    4   54 1
    13    4   55 1
    14    5    6 1
    15    5    7 1
    16    5   15 1
    17    7    8 1
    18    7    9 1
    19    7   14 1
    20    9   10 1
    21    9   56 1
    22    9   57 1
    23   10   11 1
    24   11   12 1
    25   11   13 1
    26   11   58 1
    27   12   59 1
    28   12   60 1
    29   12   61 1
    30   13   62 1
    31   13   63 1
    32   13   64 1
    33   14   65 1
    34   15   16 am
    35   15   66 1
    36   16   17 2
    37   16   18 1
    38   18   19 1
    39   18   20 1
    40   18   27 1
    41   20   67 1
    42   20   68 1
    43   20   21 1
    44   21   22 2
    45   21   26 1
    46   22   23 1
    47   22   69 1
    48   23   25 2
    49   24   26 1
    50   25   70 1
    51   25   26 1
    52   27   28 am
    53   27   71 1
    54   28   29 2
    55   28   30 1
    56   30   31 1
    57   30   32 1
    58   30   39 1
    59   32   33 1
    60   32   72 1
    61   32   73 1
    62   33   38 ar
    63   33   34 ar
    64   34   35 ar
    65   34   74 1
    66   35   36 ar
    67   35   75 1
    68   36   37 ar
    69   36   76 1
    70   37   38 ar
    71   37   77 1
    72   38   78 1
    73   39   40 am
    74   39   79 1
    75   40   41 2
    76   40   42 1
    77   42   43 1
    78   43   44 1
    79   43   45 1
    80   43   46 1
    81   44   80 1
    82   44   81 1
    83   44   82 1
    84   45   83 1
    85   45   84 1
    86   45   85 1
    87   46   86 1
    88   46   87 1
    89   46   88 1
@<TRIPOS>MOLECULE
CHEMBL150298__2
   88    89     0     0     0
SMALL
USER_CHARGES

@<TRIPOS>ATOM
      1 C1         -0.6641   -2.5203    0.9421 C.3       1 <0>        -0.1503
      2 C2          0.7760   -2.0282    1.0993 C.3       1 <0>        -0.0946
      3 C3          1.6148   -2.5202   -0.0820 C.3       1 <0>        -0.1467
      4 C4          0.7915   -0.4987    1.1338 C.3       1 <0>        -0.1202
      5 C5          0.0643   -0.0095    2.3878 C.3       1 <0>         0.1176
      6 H1         -0.9326   -0.4488    2.4244 H         1 <0>         0.1029
      7 C6          0.8522   -0.4287    3.6305 C.3       1 <0>         0.1185
      8 H2          0.9348   -1.5152    3.6590 H         1 <0>         0.1248
      9 C7          0.1250    0.0605    4.8846 C.3       1 <0>        -0.1283
     10 S1          1.0592   -0.4366    6.3580 S.3       1 <0>        -0.2277
     11 C8          0.0773    0.2107    7.7392 C.3       1 <0>        -0.0671
     12 C9         -1.2761   -0.5017    7.7806 C.3       1 <0>        -0.1494
     13 C10         0.8225   -0.0333    9.0530 C.3       1 <0>        -0.1338
     14 O1          2.1592    0.1472    3.5826 O.3       1 <0>        -0.5363
     15 N1         -0.0467    1.4508    2.3496 N.am      1 <0>        -0.7229
     16 C11        -1.0233    2.0337    1.6266 C.2       1 <0>         0.5170
     17 O2         -1.8640    1.3507    1.0811 O.2       1 <0>        -0.5246
     18 C12        -1.0708    3.5343    1.4959 C.3       1 <0>         0.1393
     19 H3         -0.1512    3.8876    1.0294 H         1 <0>         0.1271
     20 C13        -1.2129    4.1629    2.8835 C.3       1 <0>        -0.0388
     21 C14        -1.1370    5.6633    2.7655 C.2       1 <0>         0.0056
     22 C15        -2.0527    6.5402    3.2197 C.2       1 <0>        -0.0567
     23 N2         -1.5930    7.7908    2.9063 N.pl3     1 <0>        -0.5699
     24 H4         -2.0336    8.6322    3.1036 H         1 <0>         0.4170
     25 C16        -0.4116    7.6346    2.2710 C.2       1 <0>         0.1956
     26 N3         -0.1429    6.3598    2.1948 N.2       1 <0>        -0.4518
     27 N4         -2.2168    3.9163    0.6670 N.am      1 <0>        -0.7075
     28 C17        -2.2038    5.0856   -0.0032 C.2       1 <0>         0.5098
     29 O3         -1.2433    5.8215    0.0799 O.2       1 <0>        -0.4939
     30 C18        -3.3826    5.4785   -0.8557 C.3       1 <0>         0.1596
     31 H5         -4.2758    5.5413   -0.2341 H         1 <0>         0.1151
     32 C19        -3.5944    4.4286   -1.9483 C.3       1 <0>        -0.0921
     33 C20        -4.8445    4.7557   -2.7238 C.ar      1 <0>        -0.0650
     34 C21        -6.0639    4.2486   -2.3152 C.ar      1 <0>        -0.1036
     35 C22        -7.2106    4.5486   -3.0265 C.ar      1 <0>        -0.1112
     36 C23        -7.1380    5.3561   -4.1461 C.ar      1 <0>        -0.1205
     37 C24        -5.9188    5.8639   -4.5542 C.ar      1 <0>        -0.1096
     38 C25        -4.7727    5.5674   -3.8404 C.ar      1 <0>        -0.1082
     39 N5         -3.1254    6.7816   -1.4740 N.am      1 <0>        -0.6948
     40 C26        -4.1562    7.5655   -1.8473 C.2       1 <0>         0.6539
     41 O4         -5.2988    7.1916   -1.6711 O.2       1 <0>        -0.5478
     42 O5         -3.9198    8.7630   -2.4155 O.3       1 <0>        -0.3590
     43 C27        -5.0594    9.5414   -2.7863 C.3       1 <0>         0.1384
     44 C28        -5.9026    9.8351   -1.5438 C.3       1 <0>        -0.1842
     45 C29        -4.5958   10.8588   -3.4111 C.3       1 <0>        -0.1415
     46 C30        -5.9000    8.7637   -3.8009 C.3       1 <0>        -0.1923
     47 H6         -1.1127   -2.0564    0.0637 H         1 <0>         0.0573
     48 H7         -0.6669   -3.6037    0.8223 H         1 <0>         0.0551
     49 H8         -1.2387   -2.2513    1.8284 H         1 <0>         0.0528
     50 H9          1.1935   -2.4168    2.0282 H         1 <0>         0.0727
     51 H10         1.1974   -2.1316   -1.0108 H         1 <0>         0.0537
     52 H11         2.6408   -2.1697    0.0300 H         1 <0>         0.0557
     53 H12         1.6038   -3.6099   -0.1065 H         1 <0>         0.0558
     54 H13         1.8228   -0.1461    1.1509 H         1 <0>         0.0758
     55 H14         0.2894   -0.1102    0.2477 H         1 <0>         0.0704
     56 H15         0.0424    1.1470    4.8562 H         1 <0>         0.0821
     57 H16        -0.8719   -0.3788    4.9212 H         1 <0>         0.0913
     58 H17        -0.0793    1.2808    7.6036 H         1 <0>         0.0846
     59 H18        -1.8661   -0.1128    8.6106 H         1 <0>         0.0647
     60 H19        -1.8070   -0.3279    6.8447 H         1 <0>         0.0537
     61 H20        -1.1195   -1.5718    7.9162 H         1 <0>         0.0691
     62 H21         1.7867    0.4742    9.0234 H         1 <0>         0.0658
     63 H22         0.2326    0.3556    9.8829 H         1 <0>         0.0711
     64 H23         0.9792   -1.1034    9.1886 H         1 <0>         0.0654
     65 H24         2.1623    1.1138    3.5554 H         1 <0>         0.3699
     66 H25         0.5828    1.9982    2.8447 H         1 <0>         0.3984
     67 H26        -2.1737    3.8804    3.3137 H         1 <0>         0.0808
     68 H27        -0.4081    3.8079    3.5273 H         1 <0>         0.0834
     69 H28        -2.9730    6.3023    3.7324 H         1 <0>         0.1659
     70 H29         0.2098    8.4326    1.8923 H         1 <0>         0.2003
     71 H30        -2.9849    3.3277    0.6006 H         1 <0>         0.4087
     72 H31        -2.7381    4.4282   -2.6227 H         1 <0>         0.0821
     73 H32        -3.6974    3.4444   -1.4913 H         1 <0>         0.0905
     74 H33        -6.1206    3.6177   -1.4404 H         1 <0>         0.1157
     75 H34        -8.1631    4.1518   -2.7077 H         1 <0>         0.1167
     76 H35        -8.0338    5.5899   -4.7022 H         1 <0>         0.1156
     77 H36        -5.8620    6.4945   -5.4291 H         1 <0>         0.1145
     78 H37        -3.8207    5.9672   -4.1570 H         1 <0>         0.1092
     79 H38        -2.2133    7.0801   -1.6146 H         1 <0>         0.4130
     80 H39        -5.3038   10.3892   -0.8210 H         1 <0>         0.0554
     81 H40        -6.7718   10.4289   -1.8267 H         1 <0>         0.0681
     82 H41        -6.2329    8.8966   -1.0987 H         1 <0>         0.0878
     83 H42        -3.9950   10.6496   -4.2962 H         1 <0>         0.0661
     84 H43        -5.4650   11.4526   -3.6939 H         1 <0>         0.0796
     85 H44        -3.9969   11.4129   -2.6882 H         1 <0>         0.0647
     86 H45        -6.2303    7.8252   -3.3558 H         1 <0>         0.1025
     87 H46        -6.7692    9.3575   -4.0838 H         1 <0>         0.0649
     88 H47        -5.2993    8.5545   -4.6861 H         1 <0>         0.0571
@<TRIPOS>BOND
     1    1    2 1
     2    1   47 1
     3    1   48 1
     4    1   49 1
     5    2    3 1
     6    2    4 1
     7    2   50 1
     8    3   51 1
     9    3   52 1
    10    3   53 1
    11    4    5 1
    12    4   54 1
    13    4   55 1
    14    5    6 1
    15    5    7 1
    16    5   15 1
    17    7    8 1
    18    7    9 1
    19    7   14 1
    20    9   10 1
    21    9   56 1
    22    9   57 1
    23   10   11 1
    24   11   12 1
    25   11   13 1
    26   11   58 1
    27   12   59 1
    28   12   60 1
    29   12   61 1
    30   13   62 1
    31   13   63 1
    32   13   64 1
    33   14   65 1
    34   15   16 am
    35   15   66 1
    36   16   17 2
    37   16   18 1
    38   18   19 1
    39   18   20 1
    40   18   27 1
    41   20   21 1
    42   20   67 1
    43   20   68 1
    44   21   26 1
    45   21   22 2
    46   22   23 1
    47   22   69 1
    48   23   24 1
    49   23   25 1
    50   25   26 2
    51   25   70 1
    52   27   28 am
    53   27   71 1
    54   28   29 2
    55   28   30 1
    56   30   31 1
    57   30   32 1
    58   30   39 1
    59   32   33 1
    60   32   72 1
    61   32   73 1
    62   33   38 ar
    63   33   34 ar
    64   34   35 ar
    65   34   74 1
    66   35   36 ar
    67   35   75 1
    68   36   37 ar
    69   36   76 1
    70   37   38 ar
    71   37   77 1
    72   38   78 1
    73   39   40 am
    74   39   79 1
    75   40   41 2
    76   40   42 1
    77   42   43 1
    78   43   44 1
    79   43   45 1
    80   43   46 1
    81   44   80 1
    82   44   81 1
    83   44   82 1
    84   45   83 1
    85   45   84 1
    86   45   85 1
    87   46   86 1
    88   46   87 1
    89   46   88 1
@<TRIPOS>MOLECULE
CHEMBL535185
   84    85     0     0     0
SMALL
USER_CHARGES

@<TRIPOS>ATOM
      1 C1          1.1934   -1.3039   -5.8879 C.3       1 <0>        -0.1511
      2 C2          0.1772   -0.4056   -5.1799 C.3       1 <0>        -0.1087
      3 H1          0.5804   -0.0886   -4.2181 H         1 <0>         0.1102
      4 C3         -1.1221   -1.1823   -4.9572 C.3       1 <0>        -0.1486
      5 C4         -2.0751   -0.3471   -4.0998 C.3       1 <0>         0.0830
      6 H2         -2.2122    0.6324   -4.5581 H         1 <0>         0.1624
      7 C5         -3.4266   -1.0572   -4.0002 C.3       1 <0>        -0.0087
      8 H3         -3.8476   -1.1787   -4.9982 H         1 <0>         0.1563
      9 C6         -4.3796   -0.2220   -3.1429 C.3       1 <0>        -0.1426
     10 C7         -5.7621   -0.8773   -3.1310 C.3       1 <0>        -0.0868
     11 H4         -5.6687   -1.9170   -2.8174 H         1 <0>         0.0647
     12 C8         -6.3654   -0.8206   -4.5359 C.3       1 <0>        -0.0838
     13 C9         -7.6616   -1.5891   -4.5574 C.ar      1 <0>        -0.0848
     14 C10        -7.6478   -2.9598   -4.7367 C.ar      1 <0>        -0.1205
     15 C11        -8.8342   -3.6693   -4.7572 C.ar      1 <0>        -0.1699
     16 C12       -10.0405   -3.0066   -4.5972 C.ar      1 <0>         0.1033
     17 C13       -10.0543   -1.6270   -4.4162 C.ar      1 <0>         0.1121
     18 C14        -8.8613   -0.9225   -4.3920 C.ar      1 <0>        -0.1675
     19 O1        -11.2357   -0.9721   -4.2588 O.3       1 <0>        -0.2987
     20 C15       -11.1734    0.4440   -4.0777 C.3       1 <0>         0.0637
     21 C16       -12.5897    1.0007   -3.9188 C.3       1 <0>        -0.1210
     22 C17       -12.5230    2.5169   -3.7249 C.3       1 <0>         0.0657
     23 O2        -13.8457    3.0368   -3.5765 O.3       1 <0>        -0.3892
     24 C18       -13.8961    4.4525   -3.3886 C.3       1 <0>         0.0307
     25 O3        -11.2085   -3.7030   -4.6175 O.3       1 <0>        -0.3037
     26 C19       -11.1179   -5.1163   -4.8080 C.3       1 <0>         0.0255
     27 C20        -6.6724   -0.1298   -2.1546 C.3       1 <0>        -0.0913
     28 C21        -6.1161   -0.2623   -0.7354 C.3       1 <0>        -0.1549
     29 C22        -6.7322    1.3488   -2.5430 C.3       1 <0>        -0.1597
     30 N1         -3.2418   -2.3772   -3.3827 N.4       1 <0>        -0.6413
     31 O4         -1.5231   -0.1878   -2.7914 O.3       1 <0>        -0.5333
     32 C23        -0.1016    0.8060   -6.0316 C.2       1 <0>         0.5146
     33 O5         -1.2284    1.0265   -6.4221 O.2       1 <0>        -0.5539
     34 N2          0.9014    1.6445   -6.3594 N.am      1 <0>        -0.7162
     35 C24         0.6304    2.8223   -7.1874 C.3       1 <0>         0.1183
     36 C25         1.9296    3.5990   -7.4101 C.3       1 <0>        -0.1215
     37 C26         1.6466    4.8291   -8.2748 C.3       1 <0>         0.0062
     38 C27         2.9263    5.5941   -8.4941 C.2       1 <0>         0.0452
     39 N3          3.4084    6.5632   -7.7297 N.2       1 <0>        -0.3882
     40 N4          4.5184    6.9575   -8.2541 N.2       1 <0>        -0.1963
     41 N5          4.7471    6.2699   -9.3184 N.2       1 <0>        -0.1960
     42 N6          3.7890    5.4234   -9.4854 N.2       1 <0>        -0.3879
     43 H5          2.0875   -0.7262   -6.1226 H         1 <0>         0.0715
     44 H6          1.4593   -2.1359   -5.2358 H         1 <0>         0.0687
     45 H7          0.7576   -1.6894   -6.8095 H         1 <0>         0.0652
     46 H8         -1.5889   -1.3929   -5.9194 H         1 <0>         0.0997
     47 H9         -0.9018   -2.1201   -4.4472 H         1 <0>         0.0686
     48 H10        -3.9961   -0.1644   -2.1242 H         1 <0>         0.1018
     49 H11        -4.4571    0.7824   -3.5592 H         1 <0>         0.1210
     50 H12        -6.5540    0.2177   -4.8088 H         1 <0>         0.0887
     51 H13        -5.6690   -1.2628   -5.2485 H         1 <0>         0.0716
     52 H14        -6.7082   -3.4775   -4.8615 H         1 <0>         0.1180
     53 H15        -8.8207   -4.7400   -4.8981 H         1 <0>         0.1361
     54 H16        -8.8690    0.1478   -4.2479 H         1 <0>         0.1359
     55 H17       -10.5916    0.6708   -3.1843 H         1 <0>         0.0638
     56 H18       -10.6988    0.9008   -4.9461 H         1 <0>         0.0652
     57 H19       -13.1716    0.7739   -4.8122 H         1 <0>         0.0855
     58 H20       -13.0643    0.5439   -3.0504 H         1 <0>         0.0847
     59 H21       -11.9411    2.7437   -2.8315 H         1 <0>         0.0519
     60 H22       -12.0483    2.9737   -4.5933 H         1 <0>         0.0530
     61 H23       -13.3427    4.7194   -2.4882 H         1 <0>         0.0432
     62 H24       -13.4500    4.9495   -4.2500 H         1 <0>         0.0440
     63 H25       -14.9341    4.7684   -3.2842 H         1 <0>         0.0903
     64 H26       -10.5296   -5.5546   -4.0019 H         1 <0>         0.0549
     65 H27       -12.1186   -5.5484   -4.8039 H         1 <0>         0.1043
     66 H28       -10.6365   -5.3240   -5.7636 H         1 <0>         0.0562
     67 H29        -7.6748   -0.5564   -2.1932 H         1 <0>         0.0833
     68 H30        -6.8178    0.1788   -0.0275 H         1 <0>         0.0624
     69 H31        -5.9746   -1.3165   -0.4976 H         1 <0>         0.0518
     70 H32        -5.1598    0.2565   -0.6702 H         1 <0>         0.0586
     71 H33        -7.2015    1.4487   -3.5217 H         1 <0>         0.0590
     72 H34        -7.3160    1.8957   -1.8026 H         1 <0>         0.0613
     73 H35        -5.7216    1.7555   -2.5814 H         1 <0>         0.0616
     74 H36        -2.9301   -2.2622   -2.4300 H         1 <0>         0.4291
     75 H37        -4.1175   -2.8784   -3.3918 H         1 <0>         0.4360
     76 H38        -1.3739   -1.0207   -2.3234 H         1 <0>         0.3619
     77 H39         1.8026    1.4681   -6.0471 H         1 <0>         0.4036
     78 H40         0.2272    2.5053   -8.1492 H         1 <0>         0.0716
     79 H41        -0.0936    3.4622   -6.6830 H         1 <0>         0.0711
     80 H42         2.3328    3.9160   -6.4483 H         1 <0>         0.0691
     81 H43         2.6536    2.9591   -7.9145 H         1 <0>         0.0691
     82 H44         1.2434    4.5121   -9.2366 H         1 <0>         0.0691
     83 H45         0.9226    5.4690   -7.7704 H         1 <0>         0.0689
     84 H46        -2.5510   -2.8978   -3.9021 H         1 <0>         0.4329
@<TRIPOS>BOND
     1    1    2 1
     2    1   43 1
     3    1   44 1
     4    1   45 1
     5    2    3 1
     6    2    4 1
     7    2   32 1
     8    4    5 1
     9    4   46 1
    10    4   47 1
    11    5    6 1
    12    5    7 1
    13    5   31 1
    14    7    8 1
    15    7    9 1
    16    7   30 1
    17    9   10 1
    18    9   48 1
    19    9   49 1
    20   10   11 1
    21   10   12 1
    22   10   27 1
    23   12   13 1
    24   12   50 1
    25   12   51 1
    26   13   18 ar
    27   13   14 ar
    28   14   15 ar
    29   14   52 1
    30   15   16 ar
    31   15   53 1
    32   16   17 ar
    33   16   25 1
    34   17   18 ar
    35   17   19 1
    36   18   54 1
    37   19   20 1
    38   20   21 1
    39   20   55 1
    40   20   56 1
    41   21   22 1
    42   21   57 1
    43   21   58 1
    44   22   23 1
    45   22   59 1
    46   22   60 1
    47   23   24 1
    48   24   61 1
    49   24   62 1
    50   24   63 1
    51   25   26 1
    52   26   64 1
    53   26   65 1
    54   26   66 1
    55   27   28 1
    56   27   29 1
    57   27   67 1
    58   28   68 1
    59   28   69 1
    60   28   70 1
    61   29   71 1
    62   29   72 1
    63   29   73 1
    64   30   74 1
    65   30   75 1
    66   30   84 1
    67   31   76 1
    68   32   33 2
    69   32   34 am
    70   34   35 1
    71   34   77 1
    72   35   36 1
    73   35   78 1
    74   35   79 1
    75   36   37 1
    76   36   80 1
    77   36   81 1
    78   37   38 1
    79   37   82 1
    80   37   83 1
    81   38   42 2
    82   38   39 1
    83   39   40 1
    84   40   41 2
    85   41   42 1
@<TRIPOS>MOLECULE
CHEMBL431401
   80    84     0     0     0
SMALL
USER_CHARGES

@<TRIPOS>ATOM
      1 C1          2.2990    2.9168   -3.2725 C.3       1 <0>        -0.1560
      2 C2          2.0190    1.5038   -2.7569 C.3       1 <0>        -0.1104
      3 C3          2.4867    0.4805   -3.7938 C.3       1 <0>        -0.0684
      4 C4          2.2109   -0.9112   -3.2859 C.2       1 <0>         0.2500
      5 C5          2.5607   -2.0308   -4.0663 C.2       1 <0>         0.1307
      6 N1          3.1254   -2.1884   -5.2498 N.2       1 <0>        -0.2396
      7 N2          3.2224   -3.4454   -5.5118 N.2       1 <0>        -0.2285
      8 C6          2.7318   -4.1531   -4.5241 C.2       1 <0>         0.1792
      9 N3          2.2986   -3.2920   -3.5808 N.pl3     1 <0>        -0.3592
     10 C7          1.7077   -3.4260   -2.3584 C.2       1 <0>         0.0140
     11 C8          1.3881   -2.3141   -1.6411 C.2       1 <0>         0.1342
     12 N4          1.6499   -1.0845   -2.1148 N.2       1 <0>        -0.4474
     13 C9          0.7457   -2.4626   -0.3121 C.ar      1 <0>        -0.0940
     14 C10         0.4027   -1.3360    0.4410 C.ar      1 <0>        -0.0322
     15 C11        -0.1951   -1.5280    1.6745 C.ar      1 <0>        -0.1710
     16 C12        -0.4317   -2.8165    2.1184 C.ar      1 <0>         0.1112
     17 N5         -0.0968   -3.8605    1.3853 N.ar      1 <0>        -0.4771
     18 C13         0.4692   -3.7272    0.2032 C.ar      1 <0>         0.1179
     19 C14         2.6635   -5.6570   -4.4550 C.3       1 <0>        -0.0581
     20 C15         3.9211   -6.1881   -3.8167 C.2       1 <0>         0.5191
     21 O1          4.7875   -5.4210   -3.4537 O.2       1 <0>        -0.5112
     22 N6          4.0830   -7.5156   -3.6493 N.am      1 <0>        -0.7193
     23 C16         5.3055   -8.0320   -3.0288 C.3       1 <0>         0.1064
     24 H1          6.0641   -7.2493   -3.0143 H         1 <0>         0.1143
     25 C17         5.0024   -8.4750   -1.5960 C.3       1 <0>        -0.1214
     26 C18         4.6067   -7.2572   -0.7586 C.3       1 <0>        -0.0772
     27 C19         5.8004   -6.3070   -0.6445 C.3       1 <0>        -0.1177
     28 C20         5.4046   -5.0892    0.1930 C.3       1 <0>        -0.1113
     29 C21         4.9816   -5.5469    1.5903 C.3       1 <0>        -0.1197
     30 C22         3.7879   -6.4971    1.4762 C.3       1 <0>        -0.1155
     31 C23         4.1837   -7.7148    0.6387 C.3       1 <0>        -0.1139
     32 C24         5.8207   -9.2267   -3.8338 C.3       1 <0>         0.1025
     33 C25         6.1199   -8.7846   -5.2677 C.3       1 <0>        -0.1143
     34 C26         6.5063  -10.0039   -6.1072 C.3       1 <0>        -0.1086
     35 C27         6.8055   -9.5619   -7.5411 C.3       1 <0>        -0.1198
     36 C28         7.9616   -8.5597   -7.5350 C.3       1 <0>        -0.1211
     37 C29         7.5752   -7.3404   -6.6955 C.3       1 <0>        -0.1169
     38 C30         7.2760   -7.7824   -5.2617 C.3       1 <0>        -0.1154
     39 O2          4.8277  -10.2542   -3.8496 O.3       1 <0>        -0.5493
     40 H2          3.3689    3.0358   -3.4435 H         1 <0>         0.0557
     41 H3          1.7618    3.0755   -4.2076 H         1 <0>         0.0557
     42 H4          1.9658    3.6458   -2.5338 H         1 <0>         0.0577
     43 H5          2.5563    1.3451   -1.8219 H         1 <0>         0.0695
     44 H6          0.9491    1.3848   -2.5859 H         1 <0>         0.0695
     45 H7          1.9494    0.6392   -4.7288 H         1 <0>         0.1015
     46 H8          3.5566    0.5995   -3.9648 H         1 <0>         0.1013
     47 H9          1.4947   -4.4080   -1.9625 H         1 <0>         0.1749
     48 H10         0.5994   -0.3410    0.0699 H         1 <0>         0.1492
     49 H11        -0.4734   -0.6810    2.2839 H         1 <0>         0.1433
     50 H12        -0.8976   -2.9700    3.0806 H         1 <0>         0.1618
     51 H13         0.7251   -4.6062   -0.3698 H         1 <0>         0.1517
     52 H14         1.8003   -5.9545   -3.8596 H         1 <0>         0.1147
     53 H15         2.5677   -6.0630   -5.4620 H         1 <0>         0.1369
     54 H16         3.3900   -8.1292   -3.9396 H         1 <0>         0.3976
     55 H17         4.1822   -9.1928   -1.6035 H         1 <0>         0.0726
     56 H18         5.8886   -8.9403   -1.1644 H         1 <0>         0.0742
     57 H19         3.7756   -6.7406   -1.2388 H         1 <0>         0.0611
     58 H20         6.6314   -6.8236   -0.1643 H         1 <0>         0.0561
     59 H21         6.1017   -5.9810   -1.6399 H         1 <0>         0.0755
     60 H22         6.2551   -4.4123    0.2743 H         1 <0>         0.0562
     61 H23         4.5736   -4.5726   -0.2872 H         1 <0>         0.0525
     62 H24         5.8127   -6.0635    2.0705 H         1 <0>         0.0604
     63 H25         4.6997   -4.6793    2.1869 H         1 <0>         0.0563
     64 H26         3.4866   -6.8231    2.4717 H         1 <0>         0.0604
     65 H27         2.9569   -5.9804    0.9960 H         1 <0>         0.0566
     66 H28         3.3332   -8.3918    0.5574 H         1 <0>         0.0594
     67 H29         5.0147   -8.2315    1.1189 H         1 <0>         0.0614
     68 H30         6.7319   -9.6090   -3.3739 H         1 <0>         0.1099
     69 H31         5.2341   -8.3149   -5.6954 H         1 <0>         0.0731
     70 H32         7.3921  -10.4736   -5.6795 H         1 <0>         0.0612
     71 H33         5.6827  -10.7179   -6.1115 H         1 <0>         0.0674
     72 H34         7.0808  -10.4305   -8.1391 H         1 <0>         0.0613
     73 H35         5.9198   -9.0922   -7.9688 H         1 <0>         0.0596
     74 H36         8.8474   -9.0294   -7.1073 H         1 <0>         0.0607
     75 H37         8.1748   -8.2448   -8.5565 H         1 <0>         0.0605
     76 H38         8.3988   -6.6264   -6.6912 H         1 <0>         0.0616
     77 H39         6.6894   -6.8707   -7.1232 H         1 <0>         0.0609
     78 H40         7.0007   -6.9138   -4.6636 H         1 <0>         0.0662
     79 H41         8.1617   -8.2521   -4.8339 H         1 <0>         0.0622
     80 H42         3.9881   -9.9838   -4.2459 H         1 <0>         0.3668
@<TRIPOS>BOND
     1    1    2 1
     2    1   40 1
     3    1   41 1
     4    1   42 1
     5    2    3 1
     6    2   43 1
     7    2   44 1
     8    3    4 1
     9    3   45 1
    10    3   46 1
    11    4   12 2
    12    4    5 1
    13    5    9 1
    14    5    6 2
    15    6    7 1
    16    7    8 2
    17    8    9 1
    18    8   19 1
    19    9   10 1
    20   10   11 2
    21   10   47 1
    22   11   12 1
    23   11   13 1
    24   13   18 ar
    25   13   14 ar
    26   14   15 ar
    27   14   48 1
    28   15   16 ar
    29   15   49 1
    30   16   17 ar
    31   16   50 1
    32   17   18 ar
    33   18   51 1
    34   19   20 1
    35   19   52 1
    36   19   53 1
    37   20   21 2
    38   20   22 am
    39   22   23 1
    40   22   54 1
    41   23   24 1
    42   23   25 1
    43   23   32 1
    44   25   26 1
    45   25   55 1
    46   25   56 1
    47   26   31 1
    48   26   27 1
    49   26   57 1
    50   27   28 1
    51   27   58 1
    52   27   59 1
    53   28   29 1
    54   28   60 1
    55   28   61 1
    56   29   30 1
    57   29   62 1
    58   29   63 1
    59   30   31 1
    60   30   64 1
    61   30   65 1
    62   31   66 1
    63   31   67 1
    64   32   33 1
    65   32   39 1
    66   32   68 1
    67   33   38 1
    68   33   34 1
    69   33   69 1
    70   34   35 1
    71   34   70 1
    72   34   71 1
    73   35   36 1
    74   35   72 1
    75   35   73 1
    76   36   37 1
    77   36   74 1
    78   36   75 1
    79   37   38 1
    80   37   76 1
    81   37   77 1
    82   38   78 1
    83   38   79 1
    84   39   80 1
@<TRIPOS>MOLECULE
CHEMBL431401__1
   80    84     0     0     0
SMALL
USER_CHARGES

@<TRIPOS>ATOM
      1 C1         -0.0187    1.5258    0.0104 C.3       1 <0>        -0.1560
      2 C2          0.0021   -0.0041    0.0020 C.3       1 <0>        -0.1103
      3 C3          0.7182   -0.4975   -1.2568 C.3       1 <0>        -0.0683
      4 C4          0.7386   -2.0043   -1.2651 C.2       1 <0>         0.2498
      5 C5          1.3525   -2.6972   -2.3272 C.2       1 <0>         0.1304
      6 N1          1.9776   -2.3259   -3.4298 N.2       1 <0>        -0.2400
      7 N2          2.3576   -3.3722   -4.0771 N.2       1 <0>        -0.2294
      8 C6          2.0019   -4.4569   -3.4338 C.2       1 <0>         0.1815
      9 N3          1.3582   -4.0737   -2.3122 N.pl3     1 <0>        -0.3592
     10 C7          0.7706   -4.7313   -1.2714 C.2       1 <0>         0.0150
     11 C8          0.1899   -4.0179   -0.2677 C.2       1 <0>         0.1334
     12 N4          0.1904   -2.6746   -0.2820 N.2       1 <0>        -0.4475
     13 C9         -0.4484   -4.7355    0.8630 C.ar      1 <0>        -0.0933
     14 C10        -1.0562   -4.0255    1.9024 C.ar      1 <0>        -0.0324
     15 C11        -1.6382   -4.7416    2.9340 C.ar      1 <0>        -0.1711
     16 C12        -1.6002   -6.1239    2.9037 C.ar      1 <0>         0.1108
     17 N5         -1.0192   -6.7665    1.9092 N.ar      1 <0>        -0.4779
     18 C13        -0.4569   -6.1282    0.9032 C.ar      1 <0>         0.1175
     19 C14         2.2641   -5.8758   -3.8686 C.3       1 <0>        -0.0580
     20 C15         3.5856   -6.3365   -3.3095 C.2       1 <0>         0.5126
     21 O1          4.2491   -5.5865   -2.6253 O.2       1 <0>        -0.5079
     22 N6          4.0300   -7.5820   -3.5698 N.am      1 <0>        -0.7165
     23 C16         5.3146   -8.0298   -3.0262 C.3       1 <0>         0.1105
     24 H1          6.0124   -7.1926   -3.0063 H         1 <0>         0.1058
     25 C17         5.1107   -8.5578   -1.6047 C.3       1 <0>        -0.1344
     26 C18         4.6633   -7.4122   -0.6945 C.3       1 <0>        -0.0763
     27 C19         5.7866   -6.3791   -0.5854 C.3       1 <0>        -0.1041
     28 C20         5.3392   -5.2336    0.3249 C.3       1 <0>        -0.1085
     29 C21         5.0154   -5.7837    1.7153 C.3       1 <0>        -0.1199
     30 C22         3.8921   -6.8169    1.6062 C.3       1 <0>        -0.1129
     31 C23         4.3395   -7.9624    0.6959 C.3       1 <0>        -0.1152
     32 C24         5.8807   -9.1446   -3.9080 C.3       1 <0>         0.1038
     33 C25         7.2775   -9.5263   -3.4138 C.3       1 <0>        -0.1138
     34 C26         8.1952   -8.3042   -3.4849 C.3       1 <0>        -0.1184
     35 C27         9.5920   -8.6858   -2.9906 C.3       1 <0>        -0.1183
     36 C28        10.1580   -9.8006   -3.8724 C.3       1 <0>        -0.1218
     37 C29         9.2403  -11.0228   -3.8013 C.3       1 <0>        -0.1203
     38 C30         7.8435  -10.6411   -4.2956 C.3       1 <0>        -0.1087
     39 O2          5.0235  -10.2861   -3.8416 O.3       1 <0>        -0.5557
     40 H2          1.0039    1.9031    0.0027 H         1 <0>         0.0557
     41 H3         -0.5459    1.8868   -0.8726 H         1 <0>         0.0557
     42 H4         -0.5289    1.8773    0.9072 H         1 <0>         0.0576
     43 H5          0.5293   -0.3651    0.8851 H         1 <0>         0.0694
     44 H6         -1.0205   -0.3814    0.0098 H         1 <0>         0.0695
     45 H7          0.1910   -0.1364   -2.1398 H         1 <0>         0.1012
     46 H8          1.7408   -0.1202   -1.2645 H         1 <0>         0.1011
     47 H9          0.7657   -5.8109   -1.2439 H         1 <0>         0.1746
     48 H10        -1.0710   -2.9456    1.9008 H         1 <0>         0.1492
     49 H11        -2.1166   -4.2265    3.7539 H         1 <0>         0.1432
     50 H12        -2.0530   -6.6858    3.7072 H         1 <0>         0.1617
     51 H13         0.0054   -6.6894    0.1046 H         1 <0>         0.1521
     52 H14         1.4680   -6.5221   -3.4989 H         1 <0>         0.1137
     53 H15         2.2941   -5.9226   -4.9572 H         1 <0>         0.1370
     54 H16         3.4993   -8.1818   -4.1170 H         1 <0>         0.4058
     55 H17         4.3471   -9.3355   -1.6121 H         1 <0>         0.0664
     56 H18         6.0479   -8.9723   -1.2332 H         1 <0>         0.0760
     57 H19         3.7751   -6.9402   -1.1144 H         1 <0>         0.0709
     58 H20         6.6748   -6.8511   -0.1655 H         1 <0>         0.0474
     59 H21         6.0173   -5.9872   -1.5759 H         1 <0>         0.0776
     60 H22         6.1394   -4.4976    0.4026 H         1 <0>         0.0532
     61 H23         4.4510   -4.7616   -0.0950 H         1 <0>         0.0563
     62 H24         5.9036   -6.2558    2.1352 H         1 <0>         0.0591
     63 H25         4.6967   -4.9677    2.3638 H         1 <0>         0.0546
     64 H26         3.6615   -7.2088    2.5968 H         1 <0>         0.0578
     65 H27         3.0039   -6.3448    1.1863 H         1 <0>         0.0527
     66 H28         3.5393   -8.6984    0.6182 H         1 <0>         0.0567
     67 H29         5.2278   -8.4344    1.1158 H         1 <0>         0.0595
     68 H30         5.9427   -8.7963   -4.9390 H         1 <0>         0.1054
     69 H31         7.2154   -9.8746   -2.3828 H         1 <0>         0.0780
     70 H32         8.2572   -7.9558   -4.5158 H         1 <0>         0.0647
     71 H33         7.7919   -7.5099   -2.8566 H         1 <0>         0.0665
     72 H34        10.2458   -7.8151   -3.0412 H         1 <0>         0.0629
     73 H35         9.5299   -9.0341   -1.9596 H         1 <0>         0.0613
     74 H36        10.2200   -9.4523   -4.9034 H         1 <0>         0.0616
     75 H37        11.1531  -10.0725   -3.5203 H         1 <0>         0.0609
     76 H38         9.6436  -11.8170   -4.4295 H         1 <0>         0.0623
     77 H39         9.1783  -11.3711   -2.7703 H         1 <0>         0.0604
     78 H40         7.1897  -11.5118   -4.2449 H         1 <0>         0.0689
     79 H41         7.9055  -10.2928   -5.3266 H         1 <0>         0.0619
     80 H42         4.9217  -10.6502   -2.9516 H         1 <0>         0.3749
@<TRIPOS>BOND
     1    1    2 1
     2    1   40 1
     3    1   41 1
     4    1   42 1
     5    2    3 1
     6    2   43 1
     7    2   44 1
     8    3    4 1
     9    3   45 1
    10    3   46 1
    11    4   12 2
    12    4    5 1
    13    5    9 1
    14    5    6 2
    15    6    7 1
    16    7    8 2
    17    8    9 1
    18    8   19 1
    19    9   10 1
    20   10   11 2
    21   10   47 1
    22   11   12 1
    23   11   13 1
    24   13   18 ar
    25   13   14 ar
    26   14   15 ar
    27   14   48 1
    28   15   16 ar
    29   15   49 1
    30   16   17 ar
    31   16   50 1
    32   17   18 ar
    33   18   51 1
    34   19   20 1
    35   19   52 1
    36   19   53 1
    37   20   21 2
    38   20   22 am
    39   22   23 1
    40   22   54 1
    41   23   24 1
    42   23   25 1
    43   23   32 1
    44   25   26 1
    45   25   55 1
    46   25   56 1
    47   26   31 1
    48   26   27 1
    49   26   57 1
    50   27   28 1
    51   27   58 1
    52   27   59 1
    53   28   29 1
    54   28   60 1
    55   28   61 1
    56   29   30 1
    57   29   62 1
    58   29   63 1
    59   30   31 1
    60   30   64 1
    61   30   65 1
    62   31   66 1
    63   31   67 1
    64   32   33 1
    65   32   39 1
    66   32   68 1
    67   33   38 1
    68   33   34 1
    69   33   69 1
    70   34   35 1
    71   34   70 1
    72   34   71 1
    73   35   36 1
    74   35   72 1
    75   35   73 1
    76   36   37 1
    77   36   74 1
    78   36   75 1
    79   37   38 1
    80   37   76 1
    81   37   77 1
    82   38   78 1
    83   38   79 1
    84   39   80 1
@<TRIPOS>MOLECULE
CHEMBL287637
   70    74     0     0     0
SMALL
USER_CHARGES

@<TRIPOS>ATOM
      1 C1         -0.0167    1.3798    0.0096 C.ar      1 <0>        -0.0845
      2 C2          1.1680    2.0953    0.0022 C.ar      1 <0>        -0.1307
      3 C3          2.3774    1.4332   -0.0134 C.ar      1 <0>        -0.0603
      4 C4          2.4048    0.0349   -0.0211 C.ar      1 <0>        -0.1756
      5 C5          1.2034   -0.6808   -0.0130 C.ar      1 <0>        -0.0749
      6 C6          0.0021   -0.0041    0.0020 C.ar      1 <0>        -0.1329
      7 C7          3.6913   -0.6795   -0.0381 C.2       1 <0>         0.3984
      8 O1          4.7311   -0.0559   -0.0455 O.2       1 <0>        -0.4463
      9 C8          3.7163   -2.1863   -0.0464 C.3       1 <0>        -0.1634
     10 C9          5.1670   -2.6722   -0.0639 C.3       1 <0>        -0.1126
     11 C10         5.1924   -4.2020   -0.0723 C.3       1 <0>         0.0597
     12 O2          6.5473   -4.6558   -0.0887 O.3       1 <0>        -0.3100
     13 C11         6.7477   -5.9999   -0.0979 C.ar      1 <0>         0.1455
     14 C12         5.6626   -6.8642   -0.0971 C.ar      1 <0>        -0.2043
     15 C13         5.8689   -8.2301   -0.1070 C.ar      1 <0>        -0.0557
     16 C14         7.1557   -8.7360   -0.1172 C.ar      1 <0>        -0.1284
     17 C15         8.2389   -7.8767   -0.1175 C.ar      1 <0>        -0.0781
     18 C16         8.0378   -6.5100   -0.1139 C.ar      1 <0>        -0.1492
     19 C17         7.3779  -10.2265   -0.1274 C.3       1 <0>        -0.0471
     20 H1          6.4156  -10.7385   -0.1252 H         1 <0>         0.1033
     21 C18         8.1636  -10.6185   -1.3820 C.3       1 <0>        -0.1395
     22 C19         8.4545  -12.1204   -1.3466 C.3       1 <0>        -0.0100
     23 N1          9.2451  -12.4412   -0.1522 N.4       1 <0>        -0.4995
     24 C20         8.4694  -12.1347    1.0557 C.3       1 <0>        -0.0391
     25 C21         8.1774  -10.6336    1.1136 C.3       1 <0>         0.0777
     26 H2          9.1171  -10.0818    1.1384 H         1 <0>         0.0857
     27 O3          7.4187  -10.3385    2.2881 O.3       1 <0>        -0.3426
     28 C22         8.2161  -10.0249    3.4317 C.3       1 <0>         0.1001
     29 C23         7.3177   -9.7323    4.6056 C.ar      1 <0>        -0.0979
     30 C24         6.8839   -8.4268    4.8294 C.ar      1 <0>        -0.0998
     31 C25         6.0724   -8.1285    5.8804 C.ar      1 <0>        -0.1003
     32 C26         5.6635   -9.1498    6.7549 C.ar      1 <0>        -0.0433
     33 C27         4.8256   -8.8805    7.8506 C.ar      1 <0>        -0.1085
     34 C28         4.4497   -9.8950    8.6762 C.ar      1 <0>        -0.1072
     35 C29         4.8833  -11.2005    8.4523 C.ar      1 <0>        -0.1109
     36 C30         5.6951  -11.4987    7.4015 C.ar      1 <0>        -0.1074
     37 C31         6.1043  -10.4773    6.5272 C.ar      1 <0>        -0.0570
     38 C32         6.9376  -10.7476    5.4283 C.ar      1 <0>        -0.0773
     39 H3         -0.9607    1.9041    0.0260 H         1 <0>         0.1299
     40 H4          1.1452    3.1750    0.0081 H         1 <0>         0.1317
     41 H5          3.3011    1.9929   -0.0199 H         1 <0>         0.1343
     42 H6          1.2164   -1.7607   -0.0192 H         1 <0>         0.1308
     43 H7         -0.9266   -0.5553    0.0082 H         1 <0>         0.1307
     44 H8          3.2178   -2.5629    0.8468 H         1 <0>         0.1040
     45 H9          3.1995   -2.5534   -0.9331 H         1 <0>         0.1041
     46 H10         5.6656   -2.2956   -0.9571 H         1 <0>         0.0833
     47 H11         5.6839   -2.3051    0.8228 H         1 <0>         0.0831
     48 H12         4.6939   -4.5785    0.8209 H         1 <0>         0.0662
     49 H13         4.6756   -4.5691   -0.9590 H         1 <0>         0.0663
     50 H14         4.6573   -6.4696   -0.0885 H         1 <0>         0.1317
     51 H15         5.0244   -8.9034   -0.1064 H         1 <0>         0.1255
     52 H16         9.2430   -8.2743   -0.1251 H         1 <0>         0.1211
     53 H17         8.8842   -5.8392   -0.1186 H         1 <0>         0.1339
     54 H18         7.5750  -10.3826   -2.2686 H         1 <0>         0.1223
     55 H19         9.1030  -10.0664   -1.4105 H         1 <0>         0.0930
     56 H20         7.5145  -12.6715   -1.3184 H         1 <0>         0.1341
     57 H21         9.0137  -12.4029   -2.2385 H         1 <0>         0.1388
     58 H22         9.4805  -13.4224   -0.1595 H         1 <0>         0.4352
     59 H23         7.5291  -12.6855    1.0326 H         1 <0>         0.1410
     60 H24         9.0396  -12.4277    1.9372 H         1 <0>         0.1339
     61 H25         8.8599  -10.8719    3.6690 H         1 <0>         0.0605
     62 H26         8.8305   -9.1504    3.2175 H         1 <0>         0.0686
     63 H27         7.1966   -7.6401    4.1588 H         1 <0>         0.1226
     64 H28         5.7447   -7.1121    6.0418 H         1 <0>         0.1309
     65 H29         4.4821   -7.8736    8.0367 H         1 <0>         0.1306
     66 H30         3.8060   -9.6853    9.5177 H         1 <0>         0.1280
     67 H31         4.5706  -11.9873    9.1228 H         1 <0>         0.1273
     68 H32         6.0235  -12.5149    7.2405 H         1 <0>         0.1276
     69 H33         7.2778  -11.7552    5.2399 H         1 <0>         0.1250
     70 H34        10.0928  -11.8940   -0.1542 H         1 <0>         0.4277
@<TRIPOS>BOND
     1    1    6 ar
     2    1    2 ar
     3    1   39 1
     4    2    3 ar
     5    2   40 1
     6    3    4 ar
     7    3   41 1
     8    4    5 ar
     9    4    7 1
    10    5    6 ar
    11    5   42 1
    12    6   43 1
    13    7    8 2
    14    7    9 1
    15    9   10 1
    16    9   44 1
    17    9   45 1
    18   10   11 1
    19   10   46 1
    20   10   47 1
    21   11   12 1
    22   11   48 1
    23   11   49 1
    24   12   13 1
    25   13   18 ar
    26   13   14 ar
    27   14   15 ar
    28   14   50 1
    29   15   16 ar
    30   15   51 1
    31   16   17 ar
    32   16   19 1
    33   17   18 ar
    34   17   52 1
    35   18   53 1
    36   19   20 1
    37   19   25 1
    38   19   21 1
    39   21   22 1
    40   21   54 1
    41   21   55 1
    42   22   23 1
    43   22   56 1
    44   22   57 1
    45   23   24 1
    46   23   58 1
    47   23   70 1
    48   24   25 1
    49   24   59 1
    50   24   60 1
    51   25   26 1
    52   25   27 1
    53   27   28 1
    54   28   29 1
    55   28   61 1
    56   28   62 1
    57   29   38 ar
    58   29   30 ar
    59   30   31 ar
    60   30   63 1
    61   31   32 ar
    62   31   64 1
    63   32   37 ar
    64   32   33 ar
    65   33   34 ar
    66   33   65 1
    67   34   35 ar
    68   34   66 1
    69   35   36 ar
    70   35   67 1
    71   36   37 ar
    72   36   68 1
    73   37   38 ar
    74   38   69 1
@<TRIPOS>MOLECULE
CHEMBL285454
   68    72     0     0     0
SMALL
USER_CHARGES

@<TRIPOS>ATOM
      1 C1         -0.0167    1.3795    0.0096 C.ar      1 <0>        -0.0799
      2 C2          1.1683    2.0938    0.0021 C.ar      1 <0>        -0.1296
      3 C3          2.3774    1.4300   -0.0129 C.ar      1 <0>        -0.0531
      4 C4          2.4037    0.0340   -0.0206 C.ar      1 <0>        -0.1302
      5 C5          1.2041   -0.6806   -0.0130 C.ar      1 <0>        -0.0620
      6 C6          0.0021   -0.0041    0.0020 C.ar      1 <0>        -0.1341
      7 C7          3.6948   -0.6838   -0.0372 C.2       1 <0>         0.5115
      8 O1          4.7367   -0.0594   -0.0442 O.2       1 <0>        -0.5001
      9 O2          3.7166   -2.0307   -0.0446 O.3       1 <0>        -0.3435
     10 C8          5.0001   -2.6586   -0.0607 C.3       1 <0>         0.0668
     11 C9          4.8243   -4.1785   -0.0671 C.3       1 <0>         0.0611
     12 O3          4.1918   -4.5797   -1.2841 O.3       1 <0>        -0.3054
     13 C10         3.9606   -5.9086   -1.4502 C.ar      1 <0>         0.1447
     14 C11         4.3296   -6.8072   -0.4598 C.ar      1 <0>        -0.2045
     15 C12         4.0931   -8.1575   -0.6309 C.ar      1 <0>        -0.0551
     16 C13         3.4896   -8.6135   -1.7883 C.ar      1 <0>        -0.1273
     17 C14         3.1213   -7.7200   -2.7771 C.ar      1 <0>        -0.0780
     18 C15         3.3501   -6.3681   -2.6081 C.ar      1 <0>        -0.1473
     19 C16         3.2332  -10.0871   -1.9725 C.3       1 <0>        -0.0475
     20 H1          3.5879  -10.6311   -1.0971 H         1 <0>         0.1035
     21 C17         1.7312  -10.3272   -2.1507 C.3       1 <0>        -0.1394
     22 C18         1.4859  -11.8141   -2.4165 C.3       1 <0>        -0.0101
     23 N1          2.1959  -12.2207   -3.6351 N.4       1 <0>        -0.4994
     24 C19         3.6426  -12.0606   -3.4456 C.3       1 <0>        -0.0392
     25 C20         3.9725  -10.5837   -3.2183 C.3       1 <0>         0.0777
     26 H2          3.6557  -10.0036   -4.0850 H         1 <0>         0.0857
     27 O4          5.3808  -10.4312   -3.0299 O.3       1 <0>        -0.3426
     28 C21         6.1075  -10.2016   -4.2387 C.3       1 <0>         0.1002
     29 C22         7.5740  -10.0565   -3.9235 C.ar      1 <0>        -0.0981
     30 C23         8.0928   -8.7953   -3.6361 C.ar      1 <0>        -0.1000
     31 C24         9.4125   -8.6295   -3.3477 C.ar      1 <0>        -0.1002
     32 C25        10.2676   -9.7448   -3.3382 C.ar      1 <0>        -0.0434
     33 C26        11.6356   -9.6132   -3.0445 C.ar      1 <0>        -0.1085
     34 C27        12.4334  -10.7158   -3.0442 C.ar      1 <0>        -0.1071
     35 C28        11.9144  -11.9771   -3.3313 C.ar      1 <0>        -0.1107
     36 C29        10.5948  -12.1427   -3.6201 C.ar      1 <0>        -0.1075
     37 C30         9.7399  -11.0273   -3.6300 C.ar      1 <0>        -0.0570
     38 C31         8.3707  -11.1598   -3.9182 C.ar      1 <0>        -0.0772
     39 H3         -0.9605    1.9041    0.0260 H         1 <0>         0.1324
     40 H4          1.1465    3.1736    0.0078 H         1 <0>         0.1361
     41 H5          3.3016    1.9887   -0.0191 H         1 <0>         0.1390
     42 H6          1.2174   -1.7605   -0.0192 H         1 <0>         0.1365
     43 H7         -0.9265   -0.5555    0.0079 H         1 <0>         0.1327
     44 H8          5.5435   -2.3520   -0.9545 H         1 <0>         0.0836
     45 H9          5.5611   -2.3615    0.8254 H         1 <0>         0.0962
     46 H10         5.8003   -4.6575    0.0103 H         1 <0>         0.0901
     47 H11         4.2054   -4.4762    0.7794 H         1 <0>         0.0791
     48 H12         4.8016   -6.4515    0.4441 H         1 <0>         0.1318
     49 H13         4.3801   -8.8574    0.1398 H         1 <0>         0.1260
     50 H14         2.6504   -8.0788   -3.6804 H         1 <0>         0.1214
     51 H15         3.0583   -5.6701   -3.3788 H         1 <0>         0.1339
     52 H16         1.2047  -10.0277   -1.2445 H         1 <0>         0.1225
     53 H17         1.3666   -9.7416   -2.9947 H         1 <0>         0.0930
     54 H18         1.8506  -12.3986   -1.5718 H         1 <0>         0.1342
     55 H19         0.4175  -11.9885   -2.5436 H         1 <0>         0.1389
     56 H20         1.9891  -13.1874   -3.8369 H         1 <0>         0.4353
     57 H21         3.9614  -12.6399   -2.5790 H         1 <0>         0.1411
     58 H22         4.1664  -12.4171   -4.3325 H         1 <0>         0.1340
     59 H23         5.9628  -11.0440   -4.9152 H         1 <0>         0.0606
     60 H24         5.7457   -9.2890   -4.7124 H         1 <0>         0.0685
     61 H25         7.4379   -7.9366   -3.6428 H         1 <0>         0.1225
     62 H26         9.8007   -7.6460   -3.1277 H         1 <0>         0.1309
     63 H27        12.0518   -8.6421   -2.8206 H         1 <0>         0.1307
     64 H28        13.4844  -10.6119   -2.8186 H         1 <0>         0.1281
     65 H29        12.5693  -12.8358   -3.3247 H         1 <0>         0.1274
     66 H30        10.2068  -13.1261   -3.8410 H         1 <0>         0.1276
     67 H31         7.9539  -12.1315   -4.1381 H         1 <0>         0.1250
     68 H32         1.8932  -11.6458   -4.4071 H         1 <0>         0.4276
@<TRIPOS>BOND
     1    1    6 ar
     2    1    2 ar
     3    1   39 1
     4    2    3 ar
     5    2   40 1
     6    3    4 ar
     7    3   41 1
     8    4    5 ar
     9    4    7 1
    10    5    6 ar
    11    5   42 1
    12    6   43 1
    13    7    8 2
    14    7    9 1
    15    9   10 1
    16   10   11 1
    17   10   44 1
    18   10   45 1
    19   11   12 1
    20   11   46 1
    21   11   47 1
    22   12   13 1
    23   13   18 ar
    24   13   14 ar
    25   14   15 ar
    26   14   48 1
    27   15   16 ar
    28   15   49 1
    29   16   17 ar
    30   16   19 1
    31   17   18 ar
    32   17   50 1
    33   18   51 1
    34   19   20 1
    35   19   25 1
    36   19   21 1
    37   21   22 1
    38   21   52 1
    39   21   53 1
    40   22   23 1
    41   22   54 1
    42   22   55 1
    43   23   24 1
    44   23   56 1
    45   23   68 1
    46   24   25 1
    47   24   57 1
    48   24   58 1
    49   25   26 1
    50   25   27 1
    51   27   28 1
    52   28   29 1
    53   28   59 1
    54   28   60 1
    55   29   38 ar
    56   29   30 ar
    57   30   31 ar
    58   30   61 1
    59   31   32 ar
    60   31   62 1
    61   32   37 ar
    62   32   33 ar
    63   33   34 ar
    64   33   63 1
    65   34   35 ar
    66   34   64 1
    67   35   36 ar
    68   35   65 1
    69   36   37 ar
    70   36   66 1
    71   37   38 ar
    72   38   67 1
@<TRIPOS>MOLECULE
CHEMBL283237
   67    71     0     0     0
SMALL
USER_CHARGES

@<TRIPOS>ATOM
      1 C1         -0.0164    1.3567    0.0095 C.ar      1 <0>        -0.1071
      2 C2          1.1686    2.0905    0.0021 C.ar      1 <0>        -0.1107
      3 C3          2.3785    1.4675   -0.0131 C.ar      1 <0>        -0.1075
      4 C4          2.4375    0.0634   -0.0211 C.ar      1 <0>        -0.0569
      5 C5          3.6681   -0.6153   -0.0364 C.ar      1 <0>        -0.0772
      6 C6          3.6865   -1.9761   -0.0434 C.ar      1 <0>        -0.0981
      7 C7          2.5015   -2.7098   -0.0357 C.ar      1 <0>        -0.1001
      8 C8          1.2917   -2.0868   -0.0209 C.ar      1 <0>        -0.1003
      9 C9          1.2327   -0.6827   -0.0133 C.ar      1 <0>        -0.0434
     10 C10         0.0021   -0.0041    0.0020 C.ar      1 <0>        -0.1085
     11 C11         5.0079   -2.7004   -0.0602 C.3       1 <0>         0.1002
     12 O1          5.4390   -2.9361    1.2817 O.3       1 <0>        -0.3428
     13 C12         6.6892   -3.6214    1.3786 C.3       1 <0>         0.0775
     14 H1          6.8135   -4.2757    0.5157 H         1 <0>         0.0858
     15 C13         7.8294   -2.6015    1.4149 C.3       1 <0>        -0.0390
     16 N1          9.1149   -3.3028    1.5168 N.4       1 <0>        -0.4996
     17 C14         9.1770   -4.0478    2.7800 C.3       1 <0>        -0.0100
     18 C15         8.0886   -5.1233    2.7963 C.3       1 <0>        -0.1398
     19 C16         6.7165   -4.4566    2.6619 C.3       1 <0>        -0.0473
     20 H2          6.5404   -3.8099    3.5215 H         1 <0>         0.1035
     21 C17         5.6452   -5.5146    2.5974 C.ar      1 <0>        -0.1268
     22 C18         5.6688   -6.4601    1.5888 C.ar      1 <0>        -0.0780
     23 C19         4.6878   -7.4307    1.5273 C.ar      1 <0>        -0.1468
     24 C20         3.6785   -7.4565    2.4788 C.ar      1 <0>         0.1445
     25 C21         3.6573   -6.5070    3.4900 C.ar      1 <0>        -0.2042
     26 C22         4.6436   -5.5416    3.5502 C.ar      1 <0>        -0.0551
     27 O2          2.7120   -8.4101    2.4201 O.3       1 <0>        -0.3057
     28 C23         1.7044   -8.3757    3.4329 C.3       1 <0>         0.0605
     29 C24         0.7116   -9.5170    3.2035 C.3       1 <0>         0.0676
     30 O3          1.3778  -10.7695    3.3754 O.3       1 <0>        -0.3423
     31 C25         0.6390  -11.8833    3.2071 C.2       1 <0>         0.5180
     32 O4         -0.5384  -11.7938    2.9222 O.2       1 <0>        -0.4966
     33 C26         1.2607  -13.2135    3.3689 C.ar      1 <0>        -0.1837
     34 C27         0.5050  -14.3794    3.1910 C.ar      1 <0>        -0.0093
     35 C28         1.1350  -15.6002    3.3541 C.ar      1 <0>        -0.1803
     36 C29         2.4782  -15.6304    3.6846 C.ar      1 <0>         0.1367
     37 N2          3.1653  -14.5158    3.8460 N.ar      1 <0>        -0.4913
     38 C30         2.6126  -13.3300    3.6961 C.ar      1 <0>         0.1608
     39 H3         -0.9633    1.8757    0.0259 H         1 <0>         0.1281
     40 H4          1.1260    3.1696    0.0083 H         1 <0>         0.1274
     41 H5          3.2884    2.0491   -0.0194 H         1 <0>         0.1276
     42 H6          4.5943   -0.0599   -0.0428 H         1 <0>         0.1250
     43 H7          2.5441   -3.7890   -0.0419 H         1 <0>         0.1225
     44 H8          0.3816   -2.6684   -0.0154 H         1 <0>         0.1309
     45 H9         -0.9241   -0.5595    0.0082 H         1 <0>         0.1306
     46 H10         4.8935   -3.6529   -0.5777 H         1 <0>         0.0685
     47 H11         5.7491   -2.0921   -0.5784 H         1 <0>         0.0605
     48 H12         7.8125   -2.0057    0.5023 H         1 <0>         0.1339
     49 H13         7.7036   -1.9471    2.2774 H         1 <0>         0.1411
     50 H14         9.2089   -3.9446    0.7440 H         1 <0>         0.4277
     51 H15        10.1549   -4.5197    2.8753 H         1 <0>         0.1390
     52 H16         9.0225   -3.3626    3.6135 H         1 <0>         0.1342
     53 H17         8.2423   -5.8093    1.9633 H         1 <0>         0.0930
     54 H18         8.1352   -5.6742    3.7357 H         1 <0>         0.1227
     55 H19         6.4547   -6.4396    0.8483 H         1 <0>         0.1215
     56 H20         4.7062   -8.1686    0.7389 H         1 <0>         0.1340
     57 H21         2.8726   -6.5250    4.2319 H         1 <0>         0.1318
     58 H22         4.6301   -4.8048    4.3398 H         1 <0>         0.1260
     59 H23         2.1694   -8.4899    4.4121 H         1 <0>         0.0800
     60 H24         1.1781   -7.4221    3.3895 H         1 <0>         0.0908
     61 H25        -0.1048   -9.4382    3.9214 H         1 <0>         0.0973
     62 H26         0.3126   -9.4536    2.1912 H         1 <0>         0.0847
     63 H27        -0.5425  -14.3266    2.9334 H         1 <0>         0.1512
     64 H28         0.5839  -16.5201    3.2252 H         1 <0>         0.1503
     65 H29         2.9722  -16.5822    3.8129 H         1 <0>         0.1675
     66 H30         3.2092  -12.4401    3.8320 H         1 <0>         0.1700
     67 H31         9.8668   -2.6307    1.4867 H         1 <0>         0.4352
@<TRIPOS>BOND
     1    1   10 ar
     2    1    2 ar
     3    1   39 1
     4    2    3 ar
     5    2   40 1
     6    3    4 ar
     7    3   41 1
     8    4    9 ar
     9    4    5 ar
    10    5    6 ar
    11    5   42 1
    12    6    7 ar
    13    6   11 1
    14    7    8 ar
    15    7   43 1
    16    8    9 ar
    17    8   44 1
    18    9   10 ar
    19   10   45 1
    20   11   12 1
    21   11   46 1
    22   11   47 1
    23   12   13 1
    24   13   14 1
    25   13   19 1
    26   13   15 1
    27   15   16 1
    28   15   48 1
    29   15   49 1
    30   16   17 1
    31   16   50 1
    32   16   67 1
    33   17   18 1
    34   17   51 1
    35   17   52 1
    36   18   19 1
    37   18   53 1
    38   18   54 1
    39   19   20 1
    40   19   21 1
    41   21   26 ar
    42   21   22 ar
    43   22   23 ar
    44   22   55 1
    45   23   24 ar
    46   23   56 1
    47   24   25 ar
    48   24   27 1
    49   25   26 ar
    50   25   57 1
    51   26   58 1
    52   27   28 1
    53   28   29 1
    54   28   59 1
    55   28   60 1
    56   29   30 1
    57   29   61 1
    58   29   62 1
    59   30   31 1
    60   31   32 2
    61   31   33 1
    62   33   38 ar
    63   33   34 ar
    64   34   35 ar
    65   34   63 1
    66   35   36 ar
    67   35   64 1
    68   36   37 ar
    69   36   65 1
    70   37   38 ar
    71   38   66 1
@<TRIPOS>MOLECULE
CHEMBL434956
   76    80     0     0     0
SMALL
USER_CHARGES

@<TRIPOS>ATOM
      1 C1         -0.2709    1.8005    0.9298 C.3       1 <0>         0.0269
      2 O1         -0.2171    0.3754    0.8384 O.3       1 <0>        -0.3181
      3 C2          0.4259   -0.1500   -0.2374 C.ar      1 <0>         0.1303
      4 C3          0.9986    0.6889   -1.1827 C.ar      1 <0>        -0.2078
      5 C4          1.6520    0.1524   -2.2749 C.ar      1 <0>        -0.0801
      6 C5          1.7358   -1.2196   -2.4267 C.ar      1 <0>        -0.1573
      7 C6          1.1658   -2.0575   -1.4865 C.ar      1 <0>        -0.0589
      8 C7          0.5159   -1.5258   -0.3892 C.ar      1 <0>        -0.1229
      9 C8         -0.0999   -2.4399    0.6386 C.3       1 <0>         0.1170
     10 O2          0.1247   -3.8000    0.2620 O.3       1 <0>        -0.3834
     11 C9         -0.4223   -4.7537    1.1748 C.3       1 <0>         0.0687
     12 C10        -0.1236   -6.1683    0.6742 C.3       1 <0>        -0.1194
     13 C11        -0.7093   -7.1894    1.6515 C.3       1 <0>         0.0631
     14 O3         -0.4303   -8.5106    1.1840 O.3       1 <0>        -0.3107
     15 C12        -0.8853   -9.5430    1.9430 C.ar      1 <0>         0.1353
     16 C13        -1.5903   -9.2873    3.1100 C.ar      1 <0>        -0.2002
     17 C14        -2.0527  -10.3353    3.8813 C.ar      1 <0>        -0.0805
     18 C15        -1.8117  -11.6450    3.4885 C.ar      1 <0>         0.0994
     19 C16        -1.1060  -11.9002    2.3203 C.ar      1 <0>        -0.0519
     20 C17        -0.6491  -10.8513    1.5470 C.ar      1 <0>        -0.1401
     21 N1         -2.2802  -12.7088    4.2708 N.am      1 <0>        -0.5482
     22 C18        -1.6932  -12.9144    5.5918 C.3       1 <0>         0.1545
     23 H1         -2.1159  -12.1935    6.2916 H         1 <0>         0.1038
     24 C19        -1.9905  -14.3326    6.0826 C.3       1 <0>         0.0407
     25 N2         -3.4324  -14.5904    5.9375 N.3       1 <0>        -0.6821
     26 C20        -3.7908  -14.6780    4.5156 C.3       1 <0>         0.0429
     27 C21        -3.2486  -13.4871    3.7766 C.2       1 <0>         0.5257
     28 O4         -3.7052  -13.2237    2.6842 O.2       1 <0>        -0.5313
     29 C22        -0.1784  -12.7151    5.5108 C.3       1 <0>         0.0481
     30 O5          0.3898  -13.7195    4.6680 O.3       1 <0>        -0.3064
     31 C23         1.7365  -13.6849    4.4886 C.ar      1 <0>         0.1709
     32 C24         2.4975  -12.7076    5.1154 C.ar      1 <0>        -0.2555
     33 C25         3.8650  -12.6714    4.9317 C.ar      1 <0>        -0.0369
     34 C26         4.4884  -13.6077    4.1228 C.ar      1 <0>        -0.1878
     35 C27         3.7313  -14.5869    3.4979 C.ar      1 <0>         0.2546
     36 C28         2.3547  -14.6280    3.6843 C.ar      1 <0>        -0.2252
     37 N3          4.3363  -15.5502    2.6830 N.pl3     1 <0>        -0.7495
     38 C29         5.7252  -15.3441    2.2504 C.3       1 <0>         0.1223
     39 C30         6.5317  -14.8787    3.4699 C.3       1 <0>        -0.1389
     40 C31         5.9818  -13.5329    3.9416 C.3       1 <0>        -0.0679
     41 H2          0.7422    2.2005    0.9700 H         1 <0>         0.0565
     42 H3         -0.7854    2.2014    0.0564 H         1 <0>         0.0566
     43 H4         -0.8107    2.0866    1.8325 H         1 <0>         0.1014
     44 H5          0.9331    1.7604   -1.0647 H         1 <0>         0.1297
     45 H6          2.0976    0.8049   -3.0112 H         1 <0>         0.1256
     46 H7          2.2472   -1.6371   -3.2815 H         1 <0>         0.1258
     47 H8          1.2322   -3.1287   -1.6075 H         1 <0>         0.1397
     48 H9          0.3554   -2.2522    1.6110 H         1 <0>         0.0640
     49 H10        -1.1718   -2.2512    0.6968 H         1 <0>         0.0640
     50 H11         0.0263   -4.6140    2.1583 H         1 <0>         0.0540
     51 H12        -1.5010   -4.6130    1.2441 H         1 <0>         0.0542
     52 H13        -0.5722   -6.3079   -0.3094 H         1 <0>         0.0845
     53 H14         0.9551   -6.3089    0.6048 H         1 <0>         0.0843
     54 H15        -0.2607   -7.0498    2.6351 H         1 <0>         0.0654
     55 H16        -1.7879   -7.0488    1.7209 H         1 <0>         0.0657
     56 H17        -1.7774   -8.2685    3.4156 H         1 <0>         0.1319
     57 H18        -2.6013  -10.1361    4.7900 H         1 <0>         0.1274
     58 H19        -0.9179  -12.9187    2.0144 H         1 <0>         0.1279
     59 H20        -0.1039  -11.0496    0.6360 H         1 <0>         0.1343
     60 H21        -1.4288  -15.0512    5.4859 H         1 <0>         0.0601
     61 H22        -1.7066  -14.4235    7.1311 H         1 <0>         0.0999
     62 H23        -3.7012  -15.4287    6.4305 H         1 <0>         0.3579
     63 H24        -3.3730  -15.5917    4.0928 H         1 <0>         0.0741
     64 H25        -4.8761  -14.6987    4.4166 H         1 <0>         0.1166
     65 H26         0.0368  -11.7297    5.0975 H         1 <0>         0.0754
     66 H27         0.2521  -12.7923    6.5092 H         1 <0>         0.0801
     67 H28         2.0188  -11.9743    5.7474 H         1 <0>         0.1219
     68 H29         4.4524  -11.9086    5.4211 H         1 <0>         0.1222
     69 H30         1.7664  -15.3925    3.1987 H         1 <0>         0.1246
     70 H31         3.8468  -16.3413    2.4084 H         1 <0>         0.4023
     71 H32         6.1363  -16.2795    1.8710 H         1 <0>         0.0802
     72 H33         5.7601  -14.5819    1.4720 H         1 <0>         0.0603
     73 H34         6.4386  -15.6122    4.2708 H         1 <0>         0.0693
     74 H35         7.5803  -14.7682    3.1936 H         1 <0>         0.0773
     75 H36         6.2164  -12.7688    3.2005 H         1 <0>         0.0691
     76 H37         6.4465  -13.2672    4.8910 H         1 <0>         0.0728
@<TRIPOS>BOND
     1    1    2 1
     2    1   41 1
     3    1   42 1
     4    1   43 1
     5    2    3 1
     6    3    8 ar
     7    3    4 ar
     8    4    5 ar
     9    4   44 1
    10    5    6 ar
    11    5   45 1
    12    6    7 ar
    13    6   46 1
    14    7    8 ar
    15    7   47 1
    16    8    9 1
    17    9   10 1
    18    9   48 1
    19    9   49 1
    20   10   11 1
    21   11   12 1
    22   11   50 1
    23   11   51 1
    24   12   13 1
    25   12   52 1
    26   12   53 1
    27   13   14 1
    28   13   54 1
    29   13   55 1
    30   14   15 1
    31   15   20 ar
    32   15   16 ar
    33   16   17 ar
    34   16   56 1
    35   17   18 ar
    36   17   57 1
    37   18   19 ar
    38   18   21 1
    39   19   20 ar
    40   19   58 1
    41   20   59 1
    42   21   27 am
    43   21   22 1
    44   22   23 1
    45   22   24 1
    46   22   29 1
    47   24   25 1
    48   24   60 1
    49   24   61 1
    50   25   26 1
    51   25   62 1
    52   26   27 1
    53   26   63 1
    54   26   64 1
    55   27   28 2
    56   29   30 1
    57   29   65 1
    58   29   66 1
    59   30   31 1
    60   31   36 ar
    61   31   32 ar
    62   32   33 ar
    63   32   67 1
    64   33   34 ar
    65   33   68 1
    66   34   40 1
    67   34   35 ar
    68   35   36 ar
    69   35   37 1
    70   36   69 1
    71   37   38 1
    72   37   70 1
    73   38   39 1
    74   38   71 1
    75   38   72 1
    76   39   40 1
    77   39   73 1
    78   39   74 1
    79   40   75 1
    80   40   76 1
@<TRIPOS>MOLECULE
CHEMBL434956__1
   77    81     0     0     0
SMALL
USER_CHARGES

@<TRIPOS>ATOM
      1 C1          1.9410    0.8800    0.1210 C.3       1 <0>         0.0264
      2 O1          1.6971   -0.5278    0.1472 O.3       1 <0>        -0.3190
      3 C2          2.0326   -1.1910    1.2849 C.ar      1 <0>         0.1310
      4 C3          2.5799   -0.4999    2.3564 C.ar      1 <0>        -0.2067
      5 C4          2.9196   -1.1762    3.5119 C.ar      1 <0>        -0.0780
      6 C5          2.7146   -2.5409    3.6013 C.ar      1 <0>        -0.1572
      7 C6          2.1699   -3.2318    2.5350 C.ar      1 <0>        -0.0597
      8 C7          1.8231   -2.5590    1.3791 C.ar      1 <0>        -0.1256
      9 C8          1.2235   -3.3117    0.2194 C.3       1 <0>         0.1187
     10 O2          1.1088   -4.6953    0.5578 O.3       1 <0>        -0.3823
     11 C9          0.5483   -5.5028   -0.4794 C.3       1 <0>         0.0689
     12 C10         0.4734   -6.9569   -0.0096 C.3       1 <0>        -0.1189
     13 C11        -0.1267   -7.8215   -1.1201 C.3       1 <0>         0.0633
     14 O3         -0.1967   -9.1796   -0.6812 O.3       1 <0>        -0.3066
     15 C12        -0.7100  -10.0853   -1.5559 C.ar      1 <0>         0.1574
     16 C13        -1.1315   -9.6742   -2.8119 C.ar      1 <0>        -0.1942
     17 C14        -1.6529  -10.5935   -3.7007 C.ar      1 <0>        -0.0495
     18 C15        -1.7552  -11.9295   -3.3369 C.ar      1 <0>         0.0864
     19 C16        -1.3330  -12.3403   -2.0796 C.ar      1 <0>        -0.0515
     20 C17        -0.8066  -11.4210   -1.1939 C.ar      1 <0>        -0.1419
     21 N1         -2.2845  -12.8627   -4.2381 N.am      1 <0>        -0.5535
     22 C18        -1.3631  -13.6747   -5.0291 C.3       1 <0>         0.1189
     23 H1         -0.9568  -14.4717   -4.4063 H         1 <0>         0.1199
     24 C19        -2.1009  -14.2872   -6.2212 C.3       1 <0>        -0.0162
     25 N2         -3.3206  -14.9502   -5.7341 N.4       1 <0>        -0.5026
     26 C20        -4.2764  -13.9252   -5.2964 C.3       1 <0>        -0.0141
     27 C21        -3.6137  -12.9787   -4.3361 C.2       1 <0>         0.4934
     28 O4         -4.3121  -12.2885   -3.6239 O.2       1 <0>        -0.4685
     29 C22        -0.2197  -12.7950   -5.5387 C.3       1 <0>         0.0528
     30 O5          0.5637  -12.3436   -4.4321 O.3       1 <0>        -0.2971
     31 C23         1.5899  -11.4963   -4.7075 C.ar      1 <0>         0.1638
     32 C24         1.9028  -11.1865   -6.0240 C.ar      1 <0>        -0.2600
     33 C25         2.9463  -10.3274   -6.3036 C.ar      1 <0>        -0.0380
     34 C26         3.6881   -9.7679   -5.2759 C.ar      1 <0>        -0.1787
     35 C27         3.3759  -10.0731   -3.9598 C.ar      1 <0>         0.2584
     36 C28         2.3232  -10.9348   -3.6754 C.ar      1 <0>        -0.2155
     37 N3          4.1028   -9.5151   -2.9023 N.pl3     1 <0>        -0.7447
     38 C29         5.3794   -8.8479   -3.1917 C.3       1 <0>         0.1199
     39 C30         5.1734   -7.9559   -4.4230 C.3       1 <0>        -0.1392
     40 C31         4.8230   -8.8394   -5.6200 C.3       1 <0>        -0.0716
     41 H2          3.0050    1.0672    0.2662 H         1 <0>         0.0574
     42 H3          1.6290    1.2850   -0.8417 H         1 <0>         0.1019
     43 H4          1.3752    1.3617    0.9184 H         1 <0>         0.0575
     44 H5          2.7406    0.5658    2.2869 H         1 <0>         0.1308
     45 H6          3.3460   -0.6388    4.3460 H         1 <0>         0.1268
     46 H7          2.9809   -3.0679    4.5057 H         1 <0>         0.1262
     47 H8          2.0111   -4.2976    2.6072 H         1 <0>         0.1382
     48 H9          0.2354   -2.9090   -0.0033 H         1 <0>         0.0640
     49 H10         1.8654   -3.2035   -0.6549 H         1 <0>         0.0634
     50 H11        -0.4538   -5.1455   -0.7166 H         1 <0>         0.0536
     51 H12         1.1762   -5.4400   -1.3682 H         1 <0>         0.0527
     52 H13         1.4755   -7.3142    0.2276 H         1 <0>         0.0846
     53 H14        -0.1545   -7.0197    0.8792 H         1 <0>         0.0859
     54 H15        -1.1289   -7.4642   -1.3572 H         1 <0>         0.0668
     55 H16         0.5012   -7.7587   -2.0088 H         1 <0>         0.0669
     56 H17        -1.0523   -8.6349   -3.0946 H         1 <0>         0.1325
     57 H18        -1.9814  -10.2732   -4.6784 H         1 <0>         0.1188
     58 H19        -1.4126  -13.3794   -1.7959 H         1 <0>         0.1267
     59 H20        -0.4741  -11.7411   -0.2175 H         1 <0>         0.1384
     60 H21        -2.3692  -13.5017   -6.9276 H         1 <0>         0.1479
     61 H22        -1.4586  -15.0186   -6.7117 H         1 <0>         0.1645
     62 H23        -3.7282  -15.4967   -6.4780 H         1 <0>         0.4455
     63 H24        -4.6360  -13.3724   -6.1642 H         1 <0>         0.1679
     64 H25        -5.1203  -14.4059   -4.8016 H         1 <0>         0.1725
     65 H26         0.4084  -13.3725   -6.2170 H         1 <0>         0.0891
     66 H27        -0.6308  -11.9352   -6.0677 H         1 <0>         0.0782
     67 H28         1.3292  -11.6186   -6.8306 H         1 <0>         0.1181
     68 H29         3.1861  -10.0902   -7.3296 H         1 <0>         0.1238
     69 H30         2.0797  -11.1699   -2.6498 H         1 <0>         0.1256
     70 H31         3.7692   -9.5677   -1.9930 H         1 <0>         0.4039
     71 H32         5.6784   -8.2376   -2.3396 H         1 <0>         0.0837
     72 H33         6.1467   -9.5935   -3.4002 H         1 <0>         0.0629
     73 H34         4.3592   -7.2561   -4.2350 H         1 <0>         0.0694
     74 H35         6.0902   -7.4046   -4.6320 H         1 <0>         0.0805
     75 H36         5.6966   -9.4277   -5.9008 H         1 <0>         0.0721
     76 H37         4.5299   -8.2086   -6.4592 H         1 <0>         0.0747
     77 H38        -3.0910  -15.5519   -4.9574 H         1 <0>         0.4379
@<TRIPOS>BOND
     1    1    2 1
     2    1   41 1
     3    1   42 1
     4    1   43 1
     5    2    3 1
     6    3    8 ar
     7    3    4 ar
     8    4    5 ar
     9    4   44 1
    10    5    6 ar
    11    5   45 1
    12    6    7 ar
    13    6   46 1
    14    7    8 ar
    15    7   47 1
    16    8    9 1
    17    9   10 1
    18    9   48 1
    19    9   49 1
    20   10   11 1
    21   11   12 1
    22   11   50 1
    23   11   51 1
    24   12   13 1
    25   12   52 1
    26   12   53 1
    27   13   14 1
    28   13   54 1
    29   13   55 1
    30   14   15 1
    31   15   20 ar
    32   15   16 ar
    33   16   17 ar
    34   16   56 1
    35   17   18 ar
    36   17   57 1
    37   18   19 ar
    38   18   21 1
    39   19   20 ar
    40   19   58 1
    41   20   59 1
    42   21   27 am
    43   21   22 1
    44   22   23 1
    45   22   24 1
    46   22   29 1
    47   24   25 1
    48   24   60 1
    49   24   61 1
    50   25   26 1
    51   25   62 1
    52   25   77 1
    53   26   27 1
    54   26   63 1
    55   26   64 1
    56   27   28 2
    57   29   30 1
    58   29   65 1
    59   29   66 1
    60   30   31 1
    61   31   36 ar
    62   31   32 ar
    63   32   33 ar
    64   32   67 1
    65   33   34 ar
    66   33   68 1
    67   34   40 1
    68   34   35 ar
    69   35   36 ar
    70   35   37 1
    71   36   69 1
    72   37   38 1
    73   37   70 1
    74   38   39 1
    75   38   71 1
    76   38   72 1
    77   39   40 1
    78   39   73 1
    79   39   74 1
    80   40   75 1
    81   40   76 1
@<TRIPOS>MOLECULE
CHEMBL31881
   81    86     0     0     0
SMALL
USER_CHARGES

@<TRIPOS>ATOM
      1 C1         -0.0167    1.3781    0.0096 C.ar      1 <0>        -0.1106
      2 C2          1.1709    2.0855    0.0021 C.ar      1 <0>        -0.1225
      3 C3          2.3773    1.4107   -0.0130 C.ar      1 <0>        -0.0986
      4 C4          2.3960    0.0285   -0.0201 C.ar      1 <0>        -0.0971
      5 C5          1.2084   -0.6789   -0.0117 C.ar      1 <0>        -0.0985
      6 C6          0.0021   -0.0041    0.0020 C.ar      1 <0>        -0.1225
      7 C7          3.7112   -0.7071   -0.0376 C.3       1 <0>         0.1054
      8 O1          4.1410   -0.9464    1.3041 O.3       1 <0>        -0.3783
      9 C8          5.3853   -1.6423    1.4004 C.3       1 <0>         0.0662
     10 C9          5.7451   -1.8423    2.8740 C.3       1 <0>        -0.1207
     11 C10         7.0774   -2.5874    2.9771 C.3       1 <0>         0.0637
     12 O2          7.4134   -2.7742    4.3535 O.3       1 <0>        -0.3086
     13 C11         8.5762   -3.4244    4.6219 C.ar      1 <0>         0.1487
     14 C12         9.3801   -3.8683    3.5821 C.ar      1 <0>        -0.2047
     15 C13        10.5619   -4.5286    3.8576 C.ar      1 <0>        -0.0556
     16 C14        10.9435   -4.7475    5.1684 C.ar      1 <0>        -0.1341
     17 C15        10.1438   -4.3064    6.2066 C.ar      1 <0>        -0.0721
     18 C16         8.9641   -3.6402    5.9363 C.ar      1 <0>        -0.1465
     19 C17        12.2329   -5.4684    5.4661 C.3       1 <0>        -0.0394
     20 H1         12.7239   -5.7382    4.5311 H         1 <0>         0.1089
     21 C18        13.1527   -4.5564    6.2830 C.3       1 <0>        -0.1142
     22 H2         12.6409   -4.2445    7.1934 H         1 <0>         0.1165
     23 C19        14.4262   -5.3217    6.6494 C.3       1 <0>        -0.0084
     24 N1         14.0782   -6.5061    7.4435 N.4       1 <0>        -0.4969
     25 C20        13.2552   -7.4192    6.6416 C.3       1 <0>        -0.0406
     26 C21        11.9365   -6.7358    6.2731 C.3       1 <0>         0.0808
     27 H3         11.3987   -6.4702    7.1833 H         1 <0>         0.0879
     28 O3         11.1390   -7.6252    5.4890 O.3       1 <0>        -0.3402
     29 C22        10.2644   -8.4530    6.2582 C.3       1 <0>         0.1002
     30 C23         9.4761   -9.3456    5.3346 C.ar      1 <0>        -0.0983
     31 C24         8.2527   -8.9050    4.8329 C.ar      1 <0>        -0.0999
     32 C25         7.5158   -9.6863    3.9971 C.ar      1 <0>        -0.1001
     33 C26         7.9928  -10.9569    3.6320 C.ar      1 <0>        -0.0431
     34 C27         7.2604  -11.7918    2.7708 C.ar      1 <0>        -0.1086
     35 C28         7.7540  -13.0158    2.4389 C.ar      1 <0>        -0.1068
     36 C29         8.9776  -13.4563    2.9403 C.ar      1 <0>        -0.1106
     37 C30         9.7142  -12.6751    3.7766 C.ar      1 <0>        -0.1075
     38 C31         9.2370  -11.4047    4.1419 C.ar      1 <0>        -0.0570
     39 C32         9.9721  -10.5676    4.9986 C.ar      1 <0>        -0.0767
     40 C33        13.5173   -3.3234    5.4537 C.3       1 <0>         0.1419
     41 N2         14.2982   -2.3956    6.2756 N.pl3     1 <0>        -0.3966
     42 C34        15.5086   -1.8868    5.9873 C.2       1 <0>         0.2571
     43 N3         15.8635   -1.1009    6.9712 N.2       1 <0>        -0.5344
     44 C35        14.9099   -1.0827    7.9016 C.2       1 <0>         0.2124
     45 N4         13.9283   -1.8561    7.5184 N.2       1 <0>        -0.3204
     46 H4         -0.9591    1.9053    0.0259 H         1 <0>         0.1250
     47 H5          1.1563    3.1654    0.0076 H         1 <0>         0.1254
     48 H6          3.3051    1.9634   -0.0196 H         1 <0>         0.1224
     49 H7          1.2231   -1.7588   -0.0176 H         1 <0>         0.1224
     50 H8         -0.9258   -0.5567    0.0082 H         1 <0>         0.1254
     51 H9          3.5884   -1.6586   -0.5549 H         1 <0>         0.0599
     52 H10         4.4573   -0.1052   -0.5563 H         1 <0>         0.0600
     53 H11         5.2973   -2.6133    0.9129 H         1 <0>         0.0533
     54 H12         6.1662   -1.0598    0.9116 H         1 <0>         0.0532
     55 H13         5.8332   -0.8714    3.3615 H         1 <0>         0.0854
     56 H14         4.9642   -2.4248    3.3629 H         1 <0>         0.0854
     57 H15         6.9894   -3.5584    2.4896 H         1 <0>         0.0677
     58 H16         7.8583   -2.0049    2.4883 H         1 <0>         0.0672
     59 H17         9.0822   -3.6982    2.5580 H         1 <0>         0.1323
     60 H18        11.1881   -4.8744    3.0485 H         1 <0>         0.1270
     61 H19        10.4438   -4.4789    7.2296 H         1 <0>         0.1216
     62 H20         8.3420   -3.2920    6.7476 H         1 <0>         0.1347
     63 H21        14.9373   -5.6329    5.7384 H         1 <0>         0.1388
     64 H22        15.0834   -4.6751    7.2309 H         1 <0>         0.1334
     65 H23        14.9229   -6.9787    7.7285 H         1 <0>         0.4376
     66 H24        13.7913   -7.6858    5.7307 H         1 <0>         0.1434
     67 H25        13.0479   -8.3213    7.2172 H         1 <0>         0.1376
     68 H26        10.8520   -9.0659    6.9418 H         1 <0>         0.0614
     69 H27         9.5797   -7.8261    6.8295 H         1 <0>         0.0694
     70 H28         7.8838   -7.9290    5.1118 H         1 <0>         0.1226
     71 H29         6.5692   -9.3320    3.6166 H         1 <0>         0.1308
     72 H30         6.3106  -11.4639    2.3748 H         1 <0>         0.1307
     73 H31         7.1890  -13.6556    1.7772 H         1 <0>         0.1281
     74 H32         9.3464  -14.4323    2.6615 H         1 <0>         0.1275
     75 H33        10.6605  -13.0297    4.1577 H         1 <0>         0.1276
     76 H34        10.9238  -10.8938    5.3913 H         1 <0>         0.1251
     77 H35        14.1075   -3.6283    4.5895 H         1 <0>         0.1136
     78 H36        12.6058   -2.8305    5.1156 H         1 <0>         0.1126
     79 H37        16.0874   -2.0915    5.0988 H         1 <0>         0.2214
     80 H38        14.9411   -0.5172    8.8212 H         1 <0>         0.2211
     81 H39        13.5621   -6.2210    8.2624 H         1 <0>         0.4296
@<TRIPOS>BOND
     1    1    6 ar
     2    1    2 ar
     3    1   46 1
     4    2    3 ar
     5    2   47 1
     6    3    4 ar
     7    3   48 1
     8    4    5 ar
     9    4    7 1
    10    5    6 ar
    11    5   49 1
    12    6   50 1
    13    7    8 1
    14    7   51 1
    15    7   52 1
    16    8    9 1
    17    9   10 1
    18    9   53 1
    19    9   54 1
    20   10   11 1
    21   10   55 1
    22   10   56 1
    23   11   12 1
    24   11   57 1
    25   11   58 1
    26   12   13 1
    27   13   18 ar
    28   13   14 ar
    29   14   15 ar
    30   14   59 1
    31   15   16 ar
    32   15   60 1
    33   16   17 ar
    34   16   19 1
    35   17   18 ar
    36   17   61 1
    37   18   62 1
    38   19   20 1
    39   19   26 1
    40   19   21 1
    41   21   22 1
    42   21   23 1
    43   21   40 1
    44   23   24 1
    45   23   63 1
    46   23   64 1
    47   24   25 1
    48   24   65 1
    49   24   81 1
    50   25   26 1
    51   25   66 1
    52   25   67 1
    53   26   27 1
    54   26   28 1
    55   28   29 1
    56   29   30 1
    57   29   68 1
    58   29   69 1
    59   30   39 ar
    60   30   31 ar
    61   31   32 ar
    62   31   70 1
    63   32   33 ar
    64   32   71 1
    65   33   38 ar
    66   33   34 ar
    67   34   35 ar
    68   34   72 1
    69   35   36 ar
    70   35   73 1
    71   36   37 ar
    72   36   74 1
    73   37   38 ar
    74   37   75 1
    75   38   39 ar
    76   39   76 1
    77   40   41 1
    78   40   77 1
    79   40   78 1
    80   41   45 1
    81   41   42 1
    82   42   43 2
    83   42   79 1
    84   43   44 1
    85   44   45 2
    86   44   80 1
@<TRIPOS>MOLECULE
CHEMBL56044
   78    81     0     0     0
SMALL
USER_CHARGES

@<TRIPOS>ATOM
      1 C1         -0.0187    1.5258    0.0104 C.3       1 <0>        -0.1562
      2 C2          0.0021   -0.0041    0.0020 C.3       1 <0>        -0.1286
      3 C3         -1.4333   -0.5336    0.0129 C.3       1 <0>        -0.1454
      4 C4          0.7182   -0.4975   -1.2568 C.3       1 <0>         0.1142
      5 H1          0.6556   -1.5845   -1.3079 H         1 <0>         0.1052
      6 C5          2.1873   -0.0730   -1.2073 C.3       1 <0>        -0.1851
      7 C6          2.9316   -0.6714   -2.4026 C.3       1 <0>         0.1042
      8 H2          2.4272   -0.3846   -3.3253 H         1 <0>         0.1193
      9 C7          4.3689   -0.1472   -2.4228 C.3       1 <0>         0.1132
     10 H3          4.3582    0.9394   -2.5084 H         1 <0>         0.1013
     11 C8          5.1132   -0.7456   -3.6182 C.3       1 <0>        -0.1217
     12 C9          6.5096   -0.1271   -3.7111 C.3       1 <0>        -0.0818
     13 C10         6.3863    1.3668   -4.0176 C.3       1 <0>        -0.1043
     14 C11         7.7826    1.9853   -4.1105 C.3       1 <0>        -0.1112
     15 C12         8.5712    1.2989   -5.2276 C.3       1 <0>        -0.1204
     16 C13         8.6944   -0.1951   -4.9211 C.3       1 <0>        -0.1171
     17 C14         7.2981   -0.8135   -4.8282 C.3       1 <0>        -0.1151
     18 N1          5.0468   -0.5327   -1.1827 N.am      1 <0>        -0.7183
     19 C15         6.0897    0.1921   -0.7314 C.2       1 <0>         0.5130
     20 O1          6.4668    1.1634   -1.3519 O.2       1 <0>        -0.5116
     21 C16         6.7870   -0.2045    0.5444 C.3       1 <0>         0.1375
     22 H4          7.1917   -1.2111    0.4394 H         1 <0>         0.1254
     23 C17         5.7875   -0.1748    1.7024 C.3       1 <0>        -0.0376
     24 C18         6.4527   -0.6885    2.9533 C.2       1 <0>         0.0040
     25 C19         6.5262   -0.0427    4.1328 C.2       1 <0>        -0.0562
     26 N2          7.2099   -0.8614    4.9906 N.pl3     1 <0>        -0.5708
     27 H5          7.4240   -0.6734    5.9178 H         1 <0>         0.4176
     28 C20         7.5306   -1.9798    4.3050 C.2       1 <0>         0.1949
     29 N3          7.0702   -1.8714    3.0888 N.2       1 <0>        -0.4539
     30 N4          7.8780    0.7345    0.8167 N.am      1 <0>        -0.7004
     31 C21         8.9300    0.3467    1.5646 C.2       1 <0>         0.5968
     32 O2          8.9737   -0.7832    2.0134 O.2       1 <0>        -0.4792
     33 C22        10.0246    1.2887    1.8378 C.2       1 <0>        -0.0232
     34 C23        11.1327    1.0079    2.5711 C.2       1 <0>        -0.1136
     35 C24        11.9360    2.2300    2.5754 C.ar      1 <0>        -0.1455
     36 C25        13.1629    2.5868    3.1403 C.ar      1 <0>        -0.0604
     37 C26        13.6535    3.8480    2.9525 C.ar      1 <0>        -0.1374
     38 C27        12.9410    4.7760    2.2051 C.ar      1 <0>        -0.0814
     39 C28        11.7289    4.4440    1.6400 C.ar      1 <0>        -0.1111
     40 C29        11.2097    3.1664    1.8165 C.ar      1 <0>         0.0704
     41 O3         10.0829    2.5615    1.3932 O.3       1 <0>        -0.1839
     42 O4          2.9457   -2.0959   -2.2904 O.3       1 <0>        -0.5479
     43 O5          0.0970    0.0703   -2.4117 O.3       1 <0>        -0.5561
     44 H6          1.0039    1.9031    0.0027 H         1 <0>         0.0568
     45 H7         -0.5459    1.8868   -0.8726 H         1 <0>         0.0577
     46 H8         -0.5289    1.8773    0.9072 H         1 <0>         0.0593
     47 H9          0.5293   -0.3651    0.8851 H         1 <0>         0.0759
     48 H10        -1.9605   -0.1726   -0.8702 H         1 <0>         0.0614
     49 H11        -1.4185   -1.6235    0.0069 H         1 <0>         0.0545
     50 H12        -1.9435   -0.1821    0.9097 H         1 <0>         0.0529
     51 H13         2.2529    1.0143   -1.2457 H         1 <0>         0.0793
     52 H14         2.6381   -0.4317   -0.2819 H         1 <0>         0.0759
     53 H15         5.2015   -1.8242   -3.4883 H         1 <0>         0.0707
     54 H16         4.5604   -0.5338   -4.5334 H         1 <0>         0.0714
     55 H17         7.0304   -0.2617   -2.7631 H         1 <0>         0.0742
     56 H18         5.8655    1.5015   -4.9656 H         1 <0>         0.0459
     57 H19         5.8245    1.8559   -3.2217 H         1 <0>         0.0768
     58 H20         7.6948    3.0496   -4.3288 H         1 <0>         0.0527
     59 H21         8.3035    1.8507   -3.1625 H         1 <0>         0.0630
     60 H22         8.0504    1.4335   -6.1756 H         1 <0>         0.0575
     61 H23         9.5660    1.7395   -5.2938 H         1 <0>         0.0555
     62 H24         9.2562   -0.6841   -5.7169 H         1 <0>         0.0569
     63 H25         9.2153   -0.3297   -3.9731 H         1 <0>         0.0573
     64 H26         7.3859   -1.8778   -4.6098 H         1 <0>         0.0559
     65 H27         6.7773   -0.6789   -5.7762 H         1 <0>         0.0584
     66 H28         4.7452   -1.3096   -0.6863 H         1 <0>         0.3969
     67 H29         5.4497    0.8487    1.8646 H         1 <0>         0.0814
     68 H30         4.9322   -0.8057    1.4604 H         1 <0>         0.0858
     69 H31         6.1234    0.9337    4.3583 H         1 <0>         0.1669
     70 H32         8.0744   -2.8255    4.6992 H         1 <0>         0.2017
     71 H33         7.8432    1.6354    0.4588 H         1 <0>         0.4132
     72 H34        11.3720    0.0718    3.0536 H         1 <0>         0.1675
     73 H35        13.7209    1.8689    3.7232 H         1 <0>         0.1309
     74 H36        14.6019    4.1250    3.3887 H         1 <0>         0.1330
     75 H37        13.3410    5.7694    2.0654 H         1 <0>         0.1386
     76 H38        11.1837    5.1744    1.0607 H         1 <0>         0.1357
     77 H39         3.3801   -2.4232   -1.4909 H         1 <0>         0.3670
     78 H40         0.1157    1.0369   -2.4332 H         1 <0>         0.3701
@<TRIPOS>BOND
     1    1    2 1
     2    1   44 1
     3    1   45 1
     4    1   46 1
     5    2    3 1
     6    2    4 1
     7    2   47 1
     8    3   48 1
     9    3   49 1
    10    3   50 1
    11    4    5 1
    12    4    6 1
    13    4   43 1
    14    6    7 1
    15    6   51 1
    16    6   52 1
    17    7    8 1
    18    7    9 1
    19    7   42 1
    20    9   10 1
    21    9   11 1
    22    9   18 1
    23   11   12 1
    24   11   53 1
    25   11   54 1
    26   12   17 1
    27   12   13 1
    28   12   55 1
    29   13   14 1
    30   13   56 1
    31   13   57 1
    32   14   15 1
    33   14   58 1
    34   14   59 1
    35   15   16 1
    36   15   60 1
    37   15   61 1
    38   16   17 1
    39   16   62 1
    40   16   63 1
    41   17   64 1
    42   17   65 1
    43   18   19 am
    44   18   66 1
    45   19   20 2
    46   19   21 1
    47   21   22 1
    48   21   23 1
    49   21   30 1
    50   23   24 1
    51   23   67 1
    52   23   68 1
    53   24   29 1
    54   24   25 2
    55   25   26 1
    56   25   69 1
    57   26   27 1
    58   26   28 1
    59   28   29 2
    60   28   70 1
    61   30   31 am
    62   30   71 1
    63   31   32 2
    64   31   33 1
    65   33   41 1
    66   33   34 2
    67   34   35 1
    68   34   72 1
    69   35   40 ar
    70   35   36 ar
    71   36   37 ar
    72   36   73 1
    73   37   38 ar
    74   37   74 1
    75   38   39 ar
    76   38   75 1
    77   39   40 ar
    78   39   76 1
    79   40   41 1
    80   42   77 1
    81   43   78 1
@<TRIPOS>MOLECULE
CHEMBL56044__1
   79    82     0     0     0
SMALL
USER_CHARGES

@<TRIPOS>ATOM
      1 C1         -0.0187    1.5258    0.0104 C.3       1 <0>        -0.1461
      2 C2          0.0021   -0.0041    0.0020 C.3       1 <0>        -0.1276
      3 C3          0.7421   -0.5109    1.2415 C.3       1 <0>        -0.1448
      4 C4         -1.4333   -0.5336    0.0129 C.3       1 <0>         0.1124
      5 H1         -1.9435   -0.1821    0.9097 H         1 <0>         0.1005
      6 C5         -1.4126   -2.0635    0.0045 C.3       1 <0>        -0.1768
      7 C6         -2.8413   -2.5937    0.1410 C.3       1 <0>         0.0981
      8 H2         -3.4650   -2.1632   -0.6424 H         1 <0>         0.1177
      9 C7         -2.8345   -4.1178    0.0076 C.3       1 <0>         0.1121
     10 H3         -2.4357   -4.3954   -0.9680 H         1 <0>         0.1047
     11 C8         -4.2632   -4.6480    0.1442 C.3       1 <0>        -0.1206
     12 C9         -4.2743   -6.1562   -0.1127 C.3       1 <0>        -0.0834
     13 C10        -3.8783   -6.4291   -1.5652 C.3       1 <0>        -0.1178
     14 C11        -3.8894   -7.9373   -1.8221 C.3       1 <0>        -0.1185
     15 C12        -5.2931   -8.4884   -1.5640 C.3       1 <0>        -0.1229
     16 C13        -5.6891   -8.2156   -0.1115 C.3       1 <0>        -0.1192
     17 C14        -5.6780   -6.7073    0.1454 C.3       1 <0>        -0.1155
     18 N1         -1.9962   -4.6965    1.0606 N.am      1 <0>        -0.7137
     19 C15        -0.6651   -4.8040    0.8793 C.2       1 <0>         0.5085
     20 O1         -0.1612   -4.4217   -0.1555 O.2       1 <0>        -0.5057
     21 C16         0.1973   -5.3992    1.9624 C.3       1 <0>         0.1265
     22 H4         -0.1246   -6.4211    2.1626 H         1 <0>         0.1308
     23 C17         0.0641   -4.5636    3.2372 C.3       1 <0>        -0.0730
     24 C18         0.8282   -5.2264    4.3543 C.2       1 <0>         0.0358
     25 C19         0.3694   -6.2089    5.1528 C.2       1 <0>         0.0558
     26 N2          1.3800   -6.5163    6.0233 N.pl3     1 <0>        -0.5008
     27 H5          1.3528   -7.1876    6.7229 H         1 <0>         0.4669
     28 C20         2.4221   -5.7104    5.7261 C.cat     1 <0>         0.3117
     29 N3          2.0866   -4.9451    4.7237 N.pl3     1 <0>        -0.4738
     30 N4          1.5957   -5.4043    1.5257 N.am      1 <0>        -0.7037
     31 C21         2.4610   -6.2967    2.0465 C.2       1 <0>         0.6073
     32 O2          2.0809   -7.0979    2.8793 O.2       1 <0>        -0.5222
     33 C22         3.8640   -6.3018    1.6084 C.2       1 <0>        -0.0593
     34 C23         4.8201   -7.1550    2.0582 C.2       1 <0>        -0.0876
     35 C24         6.0493   -6.7942    1.3527 C.ar      1 <0>        -0.1555
     36 C25         7.3590   -7.2802    1.3675 C.ar      1 <0>        -0.0561
     37 C26         8.3033   -6.7063    0.5641 C.ar      1 <0>        -0.1315
     38 C27         7.9697   -5.6442   -0.2656 C.ar      1 <0>        -0.0673
     39 C28         6.6838   -5.1500   -0.2946 C.ar      1 <0>        -0.1139
     40 C29         5.7055   -5.7183    0.5133 C.ar      1 <0>         0.0795
     41 O3          4.3951   -5.4633    0.6941 O.3       1 <0>        -0.1841
     42 O4         -3.3642   -2.2297    1.4201 O.3       1 <0>        -0.5458
     43 O5         -2.1245   -0.0603   -1.1448 O.3       1 <0>        -0.5560
     44 H6          1.0039    1.9031    0.0027 H         1 <0>         0.0535
     45 H7         -0.5459    1.8868   -0.8726 H         1 <0>         0.0637
     46 H8         -0.5289    1.8773    0.9072 H         1 <0>         0.0542
     47 H9          0.5123   -0.3556   -0.8948 H         1 <0>         0.0712
     48 H10         0.7568   -1.6008    1.2356 H         1 <0>         0.0499
     49 H11         1.7647   -0.1336    1.2338 H         1 <0>         0.0569
     50 H12         0.2319   -0.1594    2.1383 H         1 <0>         0.0547
     51 H13        -0.9823   -2.4159   -0.9330 H         1 <0>         0.0861
     52 H14        -0.8102   -2.4233    0.8386 H         1 <0>         0.0694
     53 H15        -4.6303   -4.4482    1.1509 H         1 <0>         0.0780
     54 H16        -4.9062   -4.1510   -0.5823 H         1 <0>         0.0855
     55 H17        -3.5641   -6.6438    0.5551 H         1 <0>         0.0661
     56 H18        -4.5885   -5.9416   -2.2331 H         1 <0>         0.0651
     57 H19        -2.8783   -6.0365   -1.7491 H         1 <0>         0.0596
     58 H20        -3.6073   -8.1317   -2.8569 H         1 <0>         0.0618
     59 H21        -3.1792   -8.4249   -1.1542 H         1 <0>         0.0567
     60 H22        -6.0033   -8.0009   -2.2319 H         1 <0>         0.0634
     61 H23        -5.3010   -9.5629   -1.7471 H         1 <0>         0.0616
     62 H24        -6.6891   -8.6082    0.0723 H         1 <0>         0.0633
     63 H25        -4.9789   -8.7031    0.5563 H         1 <0>         0.0581
     64 H26        -5.9601   -6.5129    1.1801 H         1 <0>         0.0617
     65 H27        -6.3882   -6.2198   -0.5225 H         1 <0>         0.0651
     66 H28        -2.3993   -5.0022    1.8882 H         1 <0>         0.4022
     67 H29         0.4684   -3.5666    3.0620 H         1 <0>         0.1078
     68 H30        -0.9877   -4.4860    3.5125 H         1 <0>         0.1281
     69 H31        -0.6083   -6.6661    5.1141 H         1 <0>         0.2239
     70 H32         3.3765   -5.7032    6.2316 H         1 <0>         0.2626
     71 H33         1.8987   -4.7654    0.8617 H         1 <0>         0.4244
     72 H34         4.6976   -7.9405    2.7892 H         1 <0>         0.1692
     73 H35         7.6239   -8.1057    2.0115 H         1 <0>         0.1346
     74 H36         9.3161   -7.0811    0.5747 H         1 <0>         0.1389
     75 H37         8.7267   -5.2002   -0.8950 H         1 <0>         0.1447
     76 H38         6.4363   -4.3234   -0.9441 H         1 <0>         0.1396
     77 H39        -2.8577   -2.5792    2.1660 H         1 <0>         0.3604
     78 H40        -1.7251   -0.3356   -1.9813 H         1 <0>         0.3732
     79 H41         2.6566   -4.2769    4.3120 H         1 <0>         0.4593
@<TRIPOS>BOND
     1    1    2 1
     2    1   44 1
     3    1   45 1
     4    1   46 1
     5    2    3 1
     6    2    4 1
     7    2   47 1
     8    3   48 1
     9    3   49 1
    10    3   50 1
    11    4    5 1
    12    4    6 1
    13    4   43 1
    14    6    7 1
    15    6   51 1
    16    6   52 1
    17    7    8 1
    18    7    9 1
    19    7   42 1
    20    9   10 1
    21    9   11 1
    22    9   18 1
    23   11   12 1
    24   11   53 1
    25   11   54 1
    26   12   17 1
    27   12   13 1
    28   12   55 1
    29   13   14 1
    30   13   56 1
    31   13   57 1
    32   14   15 1
    33   14   58 1
    34   14   59 1
    35   15   16 1
    36   15   60 1
    37   15   61 1
    38   16   17 1
    39   16   62 1
    40   16   63 1
    41   17   64 1
    42   17   65 1
    43   18   19 am
    44   18   66 1
    45   19   20 2
    46   19   21 1
    47   21   22 1
    48   21   23 1
    49   21   30 1
    50   23   24 1
    51   23   67 1
    52   23   68 1
    53   24   29 1
    54   24   25 2
    55   25   26 1
    56   25   69 1
    57   26   27 1
    58   26   28 1
    59   28   29 2
    60   28   70 1
    61   29   79 1
    62   30   31 am
    63   30   71 1
    64   31   32 2
    65   31   33 1
    66   33   41 1
    67   33   34 2
    68   34   35 1
    69   34   72 1
    70   35   40 ar
    71   35   36 ar
    72   36   37 ar
    73   36   73 1
    74   37   38 ar
    75   37   74 1
    76   38   39 ar
    77   38   75 1
    78   39   40 ar
    79   39   76 1
    80   40   41 1
    81   42   77 1
    82   43   78 1
@<TRIPOS>MOLECULE
CHEMBL56044__2
   78    81     0     0     0
SMALL
USER_CHARGES

@<TRIPOS>ATOM
      1 C1         -0.0187    1.5258    0.0104 C.3       1 <0>        -0.1449
      2 C2          0.0021   -0.0041    0.0020 C.3       1 <0>        -0.1286
      3 C3          0.7421   -0.5109    1.2415 C.3       1 <0>        -0.1491
      4 C4         -1.4333   -0.5336    0.0129 C.3       1 <0>         0.1144
      5 H1         -1.9435   -0.1821    0.9097 H         1 <0>         0.1045
      6 C5         -1.4126   -2.0635    0.0045 C.3       1 <0>        -0.1868
      7 C6         -2.8413   -2.5937    0.1410 C.3       1 <0>         0.1039
      8 H2         -3.4650   -2.1632   -0.6424 H         1 <0>         0.1207
      9 C7         -2.8345   -4.1178    0.0076 C.3       1 <0>         0.1131
     10 H3         -2.4357   -4.3954   -0.9680 H         1 <0>         0.1031
     11 C8         -4.2632   -4.6480    0.1442 C.3       1 <0>        -0.1218
     12 C9         -4.2743   -6.1562   -0.1127 C.3       1 <0>        -0.0818
     13 C10        -3.8783   -6.4291   -1.5652 C.3       1 <0>        -0.1049
     14 C11        -3.8894   -7.9373   -1.8221 C.3       1 <0>        -0.1115
     15 C12        -5.2931   -8.4884   -1.5640 C.3       1 <0>        -0.1207
     16 C13        -5.6891   -8.2156   -0.1116 C.3       1 <0>        -0.1172
     17 C14        -5.6780   -6.7073    0.1454 C.3       1 <0>        -0.1151
     18 N1         -1.9962   -4.6965    1.0606 N.am      1 <0>        -0.7188
     19 C15        -1.4271   -5.9049    0.8810 C.2       1 <0>         0.5125
     20 O1         -1.6090   -6.5133   -0.1523 O.2       1 <0>        -0.5038
     21 C16        -0.5648   -6.5001    1.9641 C.3       1 <0>         0.1351
     22 H4         -1.1540   -6.6191    2.8734 H         1 <0>         0.1154
     23 C17         0.6191   -5.5715    2.2414 C.3       1 <0>        -0.0491
     24 C18         1.4130   -6.1039    3.4065 C.2       1 <0>        -0.0214
     25 C19         2.3856   -7.0340    3.3571 C.2       1 <0>        -0.0025
     26 N2          2.8387   -7.2271    4.6047 N.2       1 <0>        -0.4851
     27 H5          0.6698   -5.0729    5.0723 H         1 <0>         0.4151
     28 C20         2.1838   -6.4521    5.4253 C.2       1 <0>         0.1935
     29 N3          1.2881   -5.7307    4.7175 N.pl3     1 <0>        -0.5601
     30 N4         -0.0682   -7.8080    1.5294 N.am      1 <0>        -0.7027
     31 C21         0.2785   -8.7352    2.4441 C.2       1 <0>         0.6090
     32 O2          0.1790   -8.4860    3.6307 O.2       1 <0>        -0.4942
     33 C22         0.7767  -10.0474    2.0080 C.2       1 <0>        -0.0307
     34 C23         1.1490  -11.0568    2.8367 C.2       1 <0>        -0.1001
     35 C24         1.5715  -12.1570    1.9707 C.ar      1 <0>        -0.1463
     36 C25         2.0552  -13.4472    2.2012 C.ar      1 <0>        -0.0577
     37 C26         2.3682  -14.2521    1.1426 C.ar      1 <0>        -0.1381
     38 C27         2.2092  -13.7961   -0.1591 C.ar      1 <0>        -0.0801
     39 C28         1.7340  -12.5268   -0.4077 C.ar      1 <0>        -0.1123
     40 C29         1.4079  -11.6897    0.6533 C.ar      1 <0>         0.0730
     41 O3          0.9277  -10.4330    0.7236 O.3       1 <0>        -0.1847
     42 O4         -3.3642   -2.2297    1.4201 O.3       1 <0>        -0.5464
     43 O5         -2.1245   -0.0603   -1.1448 O.3       1 <0>        -0.5565
     44 H6          1.0039    1.9031    0.0027 H         1 <0>         0.0535
     45 H7         -0.5459    1.8868   -0.8726 H         1 <0>         0.0617
     46 H8         -0.5289    1.8773    0.9072 H         1 <0>         0.0546
     47 H9          0.5123   -0.3556   -0.8948 H         1 <0>         0.0705
     48 H10         0.7568   -1.6008    1.2356 H         1 <0>         0.0556
     49 H11         1.7647   -0.1336    1.2338 H         1 <0>         0.0581
     50 H12         0.2319   -0.1594    2.1383 H         1 <0>         0.0571
     51 H13        -0.9823   -2.4159   -0.9330 H         1 <0>         0.0778
     52 H14        -0.8102   -2.4233    0.8386 H         1 <0>         0.0787
     53 H15        -4.6303   -4.4482    1.1509 H         1 <0>         0.0701
     54 H16        -4.9062   -4.1510   -0.5823 H         1 <0>         0.0728
     55 H17        -3.5641   -6.6438    0.5551 H         1 <0>         0.0728
     56 H18        -4.5885   -5.9416   -2.2331 H         1 <0>         0.0468
     57 H19        -2.8783   -6.0365   -1.7491 H         1 <0>         0.0765
     58 H20        -3.6073   -8.1317   -2.8569 H         1 <0>         0.0538
     59 H21        -3.1792   -8.4249   -1.1542 H         1 <0>         0.0630
     60 H22        -6.0033   -8.0009   -2.2319 H         1 <0>         0.0579
     61 H23        -5.3010   -9.5629   -1.7471 H         1 <0>         0.0563
     62 H24        -6.6891   -8.6081    0.0723 H         1 <0>         0.0574
     63 H25        -4.9789   -8.7031    0.5563 H         1 <0>         0.0570
     64 H26        -5.9601   -6.5129    1.1801 H         1 <0>         0.0552
     65 H27        -6.3882   -6.2198   -0.5225 H         1 <0>         0.0590
     66 H28        -1.8508   -4.2099    1.8870 H         1 <0>         0.3940
     67 H29         1.2572   -5.5228    1.3590 H         1 <0>         0.0974
     68 H30         0.2504   -4.5736    2.4787 H         1 <0>         0.0829
     69 H31         2.7389   -7.5363    2.4687 H         1 <0>         0.1536
     70 H32         2.3355   -6.3946    6.4930 H         1 <0>         0.2041
     71 H33         0.0111   -8.0067    0.5833 H         1 <0>         0.4168
     72 H34         1.1362  -11.0486    3.9166 H         1 <0>         0.1692
     73 H35         2.1814  -13.8066    3.2118 H         1 <0>         0.1318
     74 H36         2.7422  -15.2497    1.3195 H         1 <0>         0.1332
     75 H37         2.4611  -14.4434   -0.9861 H         1 <0>         0.1385
     76 H38         1.6146  -12.1832   -1.4246 H         1 <0>         0.1356
     77 H39        -2.8577   -2.5792    2.1660 H         1 <0>         0.3644
     78 H40        -1.7251   -0.3356   -1.9813 H         1 <0>         0.3721
@<TRIPOS>BOND
     1    1    2 1
     2    1   44 1
     3    1   45 1
     4    1   46 1
     5    2    3 1
     6    2    4 1
     7    2   47 1
     8    3   48 1
     9    3   49 1
    10    3   50 1
    11    4    5 1
    12    4    6 1
    13    4   43 1
    14    6    7 1
    15    6   51 1
    16    6   52 1
    17    7    8 1
    18    7    9 1
    19    7   42 1
    20    9   10 1
    21    9   11 1
    22    9   18 1
    23   11   12 1
    24   11   53 1
    25   11   54 1
    26   12   17 1
    27   12   13 1
    28   12   55 1
    29   13   14 1
    30   13   56 1
    31   13   57 1
    32   14   15 1
    33   14   58 1
    34   14   59 1
    35   15   16 1
    36   15   60 1
    37   15   61 1
    38   16   17 1
    39   16   62 1
    40   16   63 1
    41   17   64 1
    42   17   65 1
    43   18   19 am
    44   18   66 1
    45   19   20 2
    46   19   21 1
    47   21   22 1
    48   21   23 1
    49   21   30 1
    50   23   67 1
    51   23   68 1
    52   23   24 1
    53   24   25 2
    54   24   29 1
    55   25   26 1
    56   25   69 1
    57   26   28 2
    58   27   29 1
    59   28   70 1
    60   28   29 1
    61   30   31 am
    62   30   71 1
    63   31   32 2
    64   31   33 1
    65   33   41 1
    66   33   34 2
    67   34   35 1
    68   34   72 1
    69   35   40 ar
    70   35   36 ar
    71   36   37 ar
    72   36   73 1
    73   37   38 ar
    74   37   74 1
    75   38   39 ar
    76   38   75 1
    77   39   40 ar
    78   39   76 1
    79   40   41 1
    80   42   77 1
    81   43   78 1
@<TRIPOS>MOLECULE
CHEMBL55833
   85    88     0     0     0
SMALL
USER_CHARGES

@<TRIPOS>ATOM
      1 C1         -0.0187    1.5258    0.0104 C.3       1 <0>        -0.1574
      2 C2          0.0021   -0.0041    0.0020 C.3       1 <0>        -0.1261
      3 C3          0.7182   -0.4975   -1.2568 C.3       1 <0>        -0.1480
      4 C4          0.7421   -0.5109    1.2415 C.3       1 <0>         0.1126
      5 H1          0.8346   -1.5958    1.1912 H         1 <0>         0.1054
      6 C5         -0.0416   -0.1236    2.4973 C.3       1 <0>        -0.1825
      7 C6          0.6310   -0.7363    3.7274 C.3       1 <0>         0.1018
      8 H2          1.6777   -0.4337    3.7577 H         1 <0>         0.1240
      9 C7         -0.0779   -0.2483    4.9924 C.3       1 <0>         0.1133
     10 H3         -0.0153    0.8385    5.0476 H         1 <0>         0.1050
     11 C8          0.5947   -0.8610    6.2225 C.3       1 <0>        -0.1247
     12 C9         -0.0322   -0.2774    7.4903 C.3       1 <0>        -0.0782
     13 C10         0.2715    1.2202    7.5666 C.3       1 <0>        -0.1068
     14 C11        -0.3554    1.8037    8.8344 C.3       1 <0>        -0.1091
     15 C12         0.2287    1.1016   10.0619 C.3       1 <0>        -0.1231
     16 C13        -0.0751   -0.3960    9.9855 C.3       1 <0>        -0.1159
     17 C14         0.5518   -0.9795    8.7178 C.3       1 <0>        -0.1175
     18 N1         -1.4847   -0.6550    4.9516 N.am      1 <0>        -0.7145
     19 C15        -2.4079    0.0418    5.6434 C.2       1 <0>         0.5088
     20 O1         -2.0741    1.0055    6.2996 O.2       1 <0>        -0.4959
     21 C16        -3.8551   -0.3766    5.6014 C.3       1 <0>         0.1275
     22 H4         -3.9508   -1.3927    5.9842 H         1 <0>         0.1262
     23 C17        -4.3590   -0.3259    4.1577 C.3       1 <0>        -0.0698
     24 C18        -5.7667   -0.8605    4.0979 C.2       1 <0>         0.0393
     25 C19        -6.1173   -2.1567    3.9959 C.2       1 <0>         0.0555
     26 N2         -7.4854   -2.1965    3.9746 N.pl3     1 <0>        -0.4975
     27 H5         -8.0372   -2.9914    3.9076 H         1 <0>         0.4671
     28 C20        -7.9235   -0.9222    4.0643 C.cat     1 <0>         0.3077
     29 N3         -6.8901   -0.1291    4.1428 N.pl3     1 <0>        -0.4755
     30 N4         -4.6508    0.5337    6.4286 N.am      1 <0>        -0.7134
     31 C21        -5.8182    0.1170    6.9578 C.2       1 <0>         0.5175
     32 O2         -6.2099   -1.0117    6.7492 O.2       1 <0>        -0.5211
     33 C22        -6.6367    1.0535    7.8088 C.3       1 <0>         0.0704
     34 H6         -6.6146    2.0541    7.3772 H         1 <0>         0.0679
     35 C23        -6.0643    1.0926    9.2260 C.3       1 <0>        -0.0619
     36 C24        -7.0079    1.8293   10.1416 C.ar      1 <0>        -0.0734
     37 C25        -6.5270    2.2833   11.3605 C.ar      1 <0>        -0.1159
     38 C26        -7.3590    2.9586   12.2307 C.ar      1 <0>        -0.1116
     39 C27        -8.6788    3.1834   11.8852 C.ar      1 <0>        -0.1144
     40 C28        -9.1578    2.7338   10.6715 C.ar      1 <0>        -0.1128
     41 C29        -8.3224    2.0567    9.7949 C.ar      1 <0>        -0.0880
     42 C30        -8.8883    1.5947    8.4777 C.3       1 <0>         0.1004
     43 N5         -8.0265    0.5742    7.8749 N.3       1 <0>        -0.6559
     44 O3          0.5490   -2.1611    3.6550 O.3       1 <0>        -0.5424
     45 O4          2.0438    0.0763    1.2925 O.3       1 <0>        -0.5535
     46 H7          1.0039    1.9031    0.0027 H         1 <0>         0.0605
     47 H8         -0.5459    1.8868   -0.8726 H         1 <0>         0.0606
     48 H9         -0.5289    1.8773    0.9072 H         1 <0>         0.0540
     49 H10        -1.0205   -0.3814    0.0098 H         1 <0>         0.0721
     50 H11         1.7408   -0.1202   -1.2645 H         1 <0>         0.0639
     51 H12         0.7330   -1.5874   -1.2628 H         1 <0>         0.0554
     52 H13         0.1910   -0.1364   -2.1398 H         1 <0>         0.0545
     53 H14        -0.0580    0.9619    2.5950 H         1 <0>         0.0800
     54 H15        -1.0627   -0.4967    2.4178 H         1 <0>         0.0702
     55 H16         0.4549   -1.9419    6.2124 H         1 <0>         0.0720
     56 H17         1.6603   -0.6322    6.2057 H         1 <0>         0.0766
     57 H18        -1.1114   -0.4284    7.4645 H         1 <0>         0.0688
     58 H19         1.3507    1.3712    7.5923 H         1 <0>         0.0500
     59 H20        -0.1446    1.7204    6.6921 H         1 <0>         0.0743
     60 H21        -0.1390    2.8706    8.8888 H         1 <0>         0.0547
     61 H22        -1.4346    1.6527    8.8087 H         1 <0>         0.0590
     62 H23         1.3078    1.2526   10.0876 H         1 <0>         0.0604
     63 H24        -0.2180    1.5173   10.9651 H         1 <0>         0.0577
     64 H25         0.3410   -0.8962   10.8600 H         1 <0>         0.0596
     65 H26        -1.1543   -0.5470    9.9598 H         1 <0>         0.0547
     66 H27         0.3354   -2.0464    8.6633 H         1 <0>         0.0561
     67 H28         1.6310   -0.8285    8.7435 H         1 <0>         0.0616
     68 H29        -1.7517   -1.4258    4.4267 H         1 <0>         0.3943
     69 H30        -4.3466    0.7052    3.8045 H         1 <0>         0.1061
     70 H31        -3.7122   -0.9343    3.5255 H         1 <0>         0.1229
     71 H32        -5.4478   -3.0024    3.9412 H         1 <0>         0.2226
     72 H33        -8.9577   -0.6113    4.0737 H         1 <0>         0.2622
     73 H34        -4.3375    1.4365    6.5955 H         1 <0>         0.4184
     74 H35        -5.9286    0.0740    9.5897 H         1 <0>         0.0898
     75 H36        -5.1008    1.6021    9.2132 H         1 <0>         0.0856
     76 H37        -5.4962    2.1073   11.6306 H         1 <0>         0.1239
     77 H38        -6.9801    3.3100   13.1790 H         1 <0>         0.1272
     78 H39        -9.3334    3.7101   12.5637 H         1 <0>         0.1274
     79 H40       -10.1889    2.9098   10.4027 H         1 <0>         0.1244
     80 H41        -9.8825    1.1780    8.6391 H         1 <0>         0.0980
     81 H42        -8.9631    2.4449    7.7997 H         1 <0>         0.0474
     82 H43        -8.3614    0.3089    6.9609 H         1 <0>         0.3384
     83 H44        -0.3554   -2.5020    3.6248 H         1 <0>         0.3618
     84 H45         2.0381    1.0422    1.3386 H         1 <0>         0.3718
     85 H46        -6.9284    0.8371    4.2195 H         1 <0>         0.4574
@<TRIPOS>BOND
     1    1    2 1
     2    1   46 1
     3    1   47 1
     4    1   48 1
     5    2    3 1
     6    2    4 1
     7    2   49 1
     8    3   50 1
     9    3   51 1
    10    3   52 1
    11    4    5 1
    12    4    6 1
    13    4   45 1
    14    6    7 1
    15    6   53 1
    16    6   54 1
    17    7    8 1
    18    7    9 1
    19    7   44 1
    20    9   10 1
    21    9   11 1
    22    9   18 1
    23   11   12 1
    24   11   55 1
    25   11   56 1
    26   12   17 1
    27   12   13 1
    28   12   57 1
    29   13   14 1
    30   13   58 1
    31   13   59 1
    32   14   15 1
    33   14   60 1
    34   14   61 1
    35   15   16 1
    36   15   62 1
    37   15   63 1
    38   16   17 1
    39   16   64 1
    40   16   65 1
    41   17   66 1
    42   17   67 1
    43   18   19 am
    44   18   68 1
    45   19   20 2
    46   19   21 1
    47   21   22 1
    48   21   23 1
    49   21   30 1
    50   23   24 1
    51   23   69 1
    52   23   70 1
    53   24   29 1
    54   24   25 2
    55   25   26 1
    56   25   71 1
    57   26   27 1
    58   26   28 1
    59   28   29 2
    60   28   72 1
    61   29   85 1
    62   30   31 am
    63   30   73 1
    64   31   32 2
    65   31   33 1
    66   33   34 1
    67   33   43 1
    68   33   35 1
    69   35   36 1
    70   35   74 1
    71   35   75 1
    72   36   41 ar
    73   36   37 ar
    74   37   38 ar
    75   37   76 1
    76   38   39 ar
    77   38   77 1
    78   39   40 ar
    79   39   78 1
    80   40   41 ar
    81   40   79 1
    82   41   42 1
    83   42   43 1
    84   42   80 1
    85   42   81 1
    86   43   82 1
    87   44   83 1
    88   45   84 1
@<TRIPOS>MOLECULE
CHEMBL55833__1
   84    87     0     0     0
SMALL
USER_CHARGES

@<TRIPOS>ATOM
      1 C1         -0.0187    1.5258    0.0104 C.3       1 <0>        -0.1559
      2 C2          0.0021   -0.0041    0.0020 C.3       1 <0>        -0.1296
      3 C3          0.7182   -0.4975   -1.2568 C.3       1 <0>        -0.1448
      4 C4          0.7421   -0.5109    1.2415 C.3       1 <0>         0.1147
      5 H1          0.8346   -1.5958    1.1912 H         1 <0>         0.1066
      6 C5         -0.0416   -0.1236    2.4973 C.3       1 <0>        -0.1470
      7 C6          0.6310   -0.7363    3.7274 C.3       1 <0>         0.1002
      8 H2          1.6777   -0.4337    3.7577 H         1 <0>         0.0624
      9 C7         -0.0779   -0.2483    4.9924 C.3       1 <0>         0.1099
     10 H3         -1.1246   -0.5509    4.9620 H         1 <0>         0.1028
     11 C8          0.0099    1.2772    5.0698 C.3       1 <0>        -0.1266
     12 C9         -0.8039    1.7748    6.2661 C.3       1 <0>        -0.0845
     13 C10        -2.2851    1.4656    6.0393 C.3       1 <0>        -0.1162
     14 C11        -3.0989    1.9632    7.2356 C.3       1 <0>        -0.1196
     15 C12        -2.9107    3.4740    7.3875 C.3       1 <0>        -0.1207
     16 C13        -1.4296    3.7832    7.6142 C.3       1 <0>        -0.1200
     17 C14        -0.6157    3.2856    6.4180 C.3       1 <0>        -0.1140
     18 N1          0.5661   -0.8349    6.1702 N.am      1 <0>        -0.7214
     19 C15         0.2036   -2.0612    6.5958 C.2       1 <0>         0.5054
     20 O1         -0.6559   -2.6791    6.0037 O.2       1 <0>        -0.5095
     21 C16         0.8660   -2.6647    7.8074 C.3       1 <0>         0.1368
     22 H4          0.6940   -2.0242    8.6724 H         1 <0>         0.1132
     23 C17         2.3702   -2.7902    7.5569 C.3       1 <0>        -0.0520
     24 C18         3.0493   -3.2782    8.8105 C.2       1 <0>        -0.0155
     25 C19         3.1896   -4.5595    9.2007 C.2       1 <0>        -0.0065
     26 N2          3.8508   -4.5679   10.3677 N.2       1 <0>        -0.4846
     27 H5          3.7127   -1.5370    9.7687 H         1 <0>         0.4148
     28 C20         4.1254   -3.3404   10.7155 C.2       1 <0>         0.1948
     29 N3          3.6472   -2.5048    9.7686 N.pl3     1 <0>        -0.5597
     30 N4          0.3011   -3.9921    8.0626 N.am      1 <0>        -0.7153
     31 C21         0.3340   -4.5108    9.3061 C.2       1 <0>         0.5216
     32 O2          0.8314   -3.8788   10.2138 O.2       1 <0>        -0.4975
     33 C22        -0.2471   -5.8763    9.5685 C.3       1 <0>         0.0756
     34 H6          0.0004   -6.5443    8.7435 H         1 <0>         0.0634
     35 C23        -1.7662   -5.7703    9.7057 C.3       1 <0>        -0.0641
     36 C24        -2.3299   -7.0760   10.2045 C.ar      1 <0>        -0.0680
     37 C25        -3.6893   -7.3082   10.0588 C.ar      1 <0>        -0.1185
     38 C26        -4.2470   -8.4890   10.5061 C.ar      1 <0>        -0.1191
     39 C27        -3.4461   -9.4453   11.1025 C.ar      1 <0>        -0.1203
     40 C28        -2.0928   -9.2161   11.2460 C.ar      1 <0>        -0.1150
     41 C29        -1.5303   -8.0307   10.7953 C.ar      1 <0>        -0.0785
     42 C30        -0.0471   -7.8309   10.9649 C.3       1 <0>         0.0980
     43 N5          0.3028   -6.4149   10.8228 N.3       1 <0>        -0.6604
     44 O3          0.5490   -2.1611    3.6550 O.3       1 <0>        -0.5482
     45 O4          2.0438    0.0763    1.2925 O.3       1 <0>        -0.5581
     46 H7          1.0039    1.9031    0.0027 H         1 <0>         0.0573
     47 H8         -0.5459    1.8868   -0.8726 H         1 <0>         0.0601
     48 H9         -0.5289    1.8773    0.9072 H         1 <0>         0.0564
     49 H10        -1.0205   -0.3814    0.0098 H         1 <0>         0.0777
     50 H11         1.7408   -0.1202   -1.2645 H         1 <0>         0.0607
     51 H12         0.7330   -1.5874   -1.2628 H         1 <0>         0.0545
     52 H13         0.1910   -0.1364   -2.1398 H         1 <0>         0.0533
     53 H14        -0.0580    0.9619    2.5950 H         1 <0>         0.0841
     54 H15        -1.0627   -0.4967    2.4178 H         1 <0>         0.0818
     55 H16         1.0514    1.5756    5.1896 H         1 <0>         0.0719
     56 H17        -0.3893    1.7112    4.1531 H         1 <0>         0.0855
     57 H18        -0.4625    1.2733    7.1716 H         1 <0>         0.0698
     58 H19        -2.6264    1.9672    5.1338 H         1 <0>         0.0625
     59 H20        -2.4191    0.3893    5.9311 H         1 <0>         0.0626
     60 H21        -4.1541    1.7429    7.0740 H         1 <0>         0.0614
     61 H22        -2.7575    1.4617    8.1411 H         1 <0>         0.0592
     62 H23        -3.2521    3.9755    6.4819 H         1 <0>         0.0614
     63 H24        -3.4905    3.8284    8.2397 H         1 <0>         0.0606
     64 H25        -1.2955    4.8595    7.7225 H         1 <0>         0.0617
     65 H26        -1.0882    3.2816    8.5198 H         1 <0>         0.0600
     66 H27         0.4395    3.5059    6.5796 H         1 <0>         0.0611
     67 H28        -0.9571    3.7871    5.5124 H         1 <0>         0.0629
     68 H29         1.2535   -0.3408    6.6437 H         1 <0>         0.4012
     69 H30         2.5459   -3.5000    6.7486 H         1 <0>         0.0963
     70 H31         2.7748   -1.8167    7.2799 H         1 <0>         0.0823
     71 H32         2.8325   -5.4281    8.6673 H         1 <0>         0.1517
     72 H33         4.6511   -3.0425   11.6107 H         1 <0>         0.2032
     73 H34        -0.0967   -4.4976    7.3366 H         1 <0>         0.4102
     74 H35        -2.0113   -4.9770   10.4119 H         1 <0>         0.0876
     75 H36        -2.2017   -5.5356    8.7345 H         1 <0>         0.0824
     76 H37        -4.3150   -6.5610    9.5933 H         1 <0>         0.1216
     77 H38        -5.3063   -8.6652   10.3907 H         1 <0>         0.1225
     78 H39        -3.8787  -10.3699   11.4550 H         1 <0>         0.1229
     79 H40        -1.4681   -9.9636   11.7122 H         1 <0>         0.1229
     80 H41         0.2527   -8.1793   11.9532 H         1 <0>         0.0942
     81 H42         0.4831   -8.4076   10.2069 H         1 <0>         0.0464
     82 H43         1.3020   -6.2810   10.8665 H         1 <0>         0.3612
     83 H44         0.9563   -2.6171    4.4042 H         1 <0>         0.3696
     84 H45         2.0381    1.0422    1.3386 H         1 <0>         0.3681
@<TRIPOS>BOND
     1    1    2 1
     2    1   46 1
     3    1   47 1
     4    1   48 1
     5    2    3 1
     6    2    4 1
     7    2   49 1
     8    3   50 1
     9    3   51 1
    10    3   52 1
    11    4    5 1
    12    4    6 1
    13    4   45 1
    14    6    7 1
    15    6   53 1
    16    6   54 1
    17    7    8 1
    18    7    9 1
    19    7   44 1
    20    9   10 1
    21    9   11 1
    22    9   18 1
    23   11   12 1
    24   11   55 1
    25   11   56 1
    26   12   17 1
    27   12   13 1
    28   12   57 1
    29   13   14 1
    30   13   58 1
    31   13   59 1
    32   14   15 1
    33   14   60 1
    34   14   61 1
    35   15   16 1
    36   15   62 1
    37   15   63 1
    38   16   17 1
    39   16   64 1
    40   16   65 1
    41   17   66 1
    42   17   67 1
    43   18   19 am
    44   18   68 1
    45   19   20 2
    46   19   21 1
    47   21   22 1
    48   21   23 1
    49   21   30 1
    50   23   69 1
    51   23   70 1
    52   23   24 1
    53   24   25 2
    54   24   29 1
    55   25   26 1
    56   25   71 1
    57   26   28 2
    58   27   29 1
    59   28   72 1
    60   28   29 1
    61   30   31 am
    62   30   73 1
    63   31   32 2
    64   31   33 1
    65   33   34 1
    66   33   43 1
    67   33   35 1
    68   35   36 1
    69   35   74 1
    70   35   75 1
    71   36   41 ar
    72   36   37 ar
    73   37   38 ar
    74   37   76 1
    75   38   39 ar
    76   38   77 1
    77   39   40 ar
    78   39   78 1
    79   40   41 ar
    80   40   79 1
    81   41   42 1
    82   42   43 1
    83   42   80 1
    84   42   81 1
    85   43   82 1
    86   44   83 1
    87   45   84 1
@<TRIPOS>MOLECULE
CHEMBL55833__2
   84    87     0     0     0
SMALL
USER_CHARGES

@<TRIPOS>ATOM
      1 C1         -0.0187    1.5258    0.0104 C.3       1 <0>        -0.1448
      2 C2          0.0021   -0.0041    0.0020 C.3       1 <0>        -0.1281
      3 C3          0.7421   -0.5109    1.2415 C.3       1 <0>        -0.1494
      4 C4         -1.4333   -0.5336    0.0129 C.3       1 <0>         0.1140
      5 H1         -1.9435   -0.1821    0.9097 H         1 <0>         0.1050
      6 C5         -1.4126   -2.0635    0.0045 C.3       1 <0>        -0.1866
      7 C6         -2.8413   -2.5937    0.1410 C.3       1 <0>         0.1040
      8 H2         -3.4650   -2.1632   -0.6424 H         1 <0>         0.1188
      9 C7         -2.8345   -4.1178    0.0076 C.3       1 <0>         0.1136
     10 H3         -2.4357   -4.3954   -0.9680 H         1 <0>         0.1009
     11 C8         -4.2632   -4.6480    0.1442 C.3       1 <0>        -0.1220
     12 C9         -4.2743   -6.1562   -0.1127 C.3       1 <0>        -0.0810
     13 C10        -3.8783   -6.4291   -1.5652 C.3       1 <0>        -0.1044
     14 C11        -3.8894   -7.9373   -1.8221 C.3       1 <0>        -0.1103
     15 C12        -5.2931   -8.4884   -1.5640 C.3       1 <0>        -0.1205
     16 C13        -5.6891   -8.2156   -0.1116 C.3       1 <0>        -0.1166
     17 C14        -5.6780   -6.7073    0.1454 C.3       1 <0>        -0.1156
     18 N1         -1.9962   -4.6965    1.0606 N.am      1 <0>        -0.7191
     19 C15        -1.4271   -5.9049    0.8810 C.2       1 <0>         0.5129
     20 O1         -1.6090   -6.5133   -0.1523 O.2       1 <0>        -0.5144
     21 C16        -0.5648   -6.5001    1.9641 C.3       1 <0>         0.1394
     22 H4         -1.1540   -6.6191    2.8734 H         1 <0>         0.1218
     23 C17         0.6191   -5.5715    2.2414 C.3       1 <0>        -0.0375
     24 C18         1.4130   -6.1039    3.4065 C.2       1 <0>         0.0098
     25 C19         2.7323   -6.3739    3.4078 C.2       1 <0>        -0.0628
     26 N2          3.0412   -6.8338    4.6595 N.pl3     1 <0>        -0.5719
     27 H5          3.9169   -7.1115    4.9708 H         1 <0>         0.4166
     28 C20         1.8991   -6.8287    5.3800 C.2       1 <0>         0.1983
     29 N3          0.9305   -6.3863    4.6257 N.2       1 <0>        -0.4514
     30 N4         -0.0682   -7.8080    1.5294 N.am      1 <0>        -0.7130
     31 C21         0.2785   -8.7352    2.4441 C.2       1 <0>         0.5115
     32 O2          0.1793   -8.4868    3.6270 O.2       1 <0>        -0.4838
     33 C22         0.7893  -10.0806    1.9969 C.3       1 <0>         0.0755
     34 H6          1.4510   -9.9547    1.1400 H         1 <0>         0.0594
     35 C23        -0.3890  -10.9745    1.6091 C.3       1 <0>        -0.0633
     36 C24         0.0869  -12.3882    1.3940 C.ar      1 <0>        -0.0665
     37 C25        -0.7352  -13.2647    0.7017 C.ar      1 <0>        -0.1178
     38 C26        -0.3395  -14.5695    0.4867 C.ar      1 <0>        -0.1176
     39 C27         0.8829  -15.0049    0.9641 C.ar      1 <0>        -0.1206
     40 C28         1.7027  -14.1329    1.6513 C.ar      1 <0>        -0.1152
     41 C29         1.3074  -12.8206    1.8665 C.ar      1 <0>        -0.0811
     42 C30         2.2409  -11.9038    2.6127 C.3       1 <0>         0.0991
     43 N5          1.5242  -10.7216    3.0990 N.3       1 <0>        -0.6577
     44 O3         -3.3642   -2.2297    1.4201 O.3       1 <0>        -0.5477
     45 O4         -2.1245   -0.0603   -1.1448 O.3       1 <0>        -0.5568
     46 H7          1.0039    1.9031    0.0027 H         1 <0>         0.0528
     47 H8         -0.5459    1.8868   -0.8726 H         1 <0>         0.0612
     48 H9         -0.5289    1.8773    0.9072 H         1 <0>         0.0549
     49 H10         0.5123   -0.3556   -0.8948 H         1 <0>         0.0696
     50 H11         0.2319   -0.1594    2.1383 H         1 <0>         0.0579
     51 H12         0.7568   -1.6008    1.2356 H         1 <0>         0.0570
     52 H13         1.7647   -0.1336    1.2338 H         1 <0>         0.0570
     53 H14        -0.9823   -2.4159   -0.9330 H         1 <0>         0.0764
     54 H15        -0.8102   -2.4233    0.8386 H         1 <0>         0.0803
     55 H16        -4.6303   -4.4482    1.1509 H         1 <0>         0.0704
     56 H17        -4.9062   -4.1510   -0.5823 H         1 <0>         0.0709
     57 H18        -3.5641   -6.6438    0.5551 H         1 <0>         0.0747
     58 H19        -4.5885   -5.9416   -2.2331 H         1 <0>         0.0454
     59 H20        -2.8783   -6.0365   -1.7491 H         1 <0>         0.0767
     60 H21        -3.6073   -8.1317   -2.8569 H         1 <0>         0.0523
     61 H22        -3.1792   -8.4249   -1.1542 H         1 <0>         0.0630
     62 H23        -6.0033   -8.0009   -2.2319 H         1 <0>         0.0571
     63 H24        -5.3010   -9.5629   -1.7471 H         1 <0>         0.0555
     64 H25        -6.6891   -8.6081    0.0723 H         1 <0>         0.0567
     65 H26        -4.9789   -8.7031    0.5563 H         1 <0>         0.0577
     66 H27        -5.9601   -6.5129    1.1801 H         1 <0>         0.0558
     67 H28        -6.3882   -6.2198   -0.5225 H         1 <0>         0.0580
     68 H29        -1.8508   -4.2099    1.8870 H         1 <0>         0.3963
     69 H30         1.2572   -5.5228    1.3590 H         1 <0>         0.0787
     70 H31         0.2504   -4.5736    2.4787 H         1 <0>         0.0821
     71 H32         3.4153   -6.2516    2.5801 H         1 <0>         0.1649
     72 H33         1.8039   -7.1360    6.4110 H         1 <0>         0.2007
     73 H34         0.0111   -8.0067    0.5833 H         1 <0>         0.4056
     74 H35        -1.1319  -10.9601    2.4065 H         1 <0>         0.0890
     75 H36        -0.8397  -10.6005    0.6898 H         1 <0>         0.0827
     76 H37        -1.6902  -12.9246    0.3292 H         1 <0>         0.1224
     77 H38        -0.9831  -15.2485   -0.0527 H         1 <0>         0.1231
     78 H39         1.1957  -16.0254    0.7992 H         1 <0>         0.1231
     79 H40         2.6572  -14.4741    2.0239 H         1 <0>         0.1219
     80 H41         2.6708  -12.4389    3.4595 H         1 <0>         0.0924
     81 H42         3.0429  -11.5863    1.9464 H         1 <0>         0.0435
     82 H43         2.1554  -10.0696    3.5402 H         1 <0>         0.3509
     83 H44        -2.8577   -2.5792    2.1660 H         1 <0>         0.3668
     84 H45        -1.7251   -0.3356   -1.9813 H         1 <0>         0.3712
@<TRIPOS>BOND
     1    1    2 1
     2    1   46 1
     3    1   47 1
     4    1   48 1
     5    2    3 1
     6    2    4 1
     7    2   49 1
     8    3   50 1
     9    3   51 1
    10    3   52 1
    11    4    5 1
    12    4    6 1
    13    4   45 1
    14    6    7 1
    15    6   53 1
    16    6   54 1
    17    7    8 1
    18    7    9 1
    19    7   44 1
    20    9   10 1
    21    9   11 1
    22    9   18 1
    23   11   12 1
    24   11   55 1
    25   11   56 1
    26   12   17 1
    27   12   13 1
    28   12   57 1
    29   13   14 1
    30   13   58 1
    31   13   59 1
    32   14   15 1
    33   14   60 1
    34   14   61 1
    35   15   16 1
    36   15   62 1
    37   15   63 1
    38   16   17 1
    39   16   64 1
    40   16   65 1
    41   17   66 1
    42   17   67 1
    43   18   19 am
    44   18   68 1
    45   19   20 2
    46   19   21 1
    47   21   22 1
    48   21   23 1
    49   21   30 1
    50   23   24 1
    51   23   69 1
    52   23   70 1
    53   24   29 1
    54   24   25 2
    55   25   26 1
    56   25   71 1
    57   26   27 1
    58   26   28 1
    59   28   29 2
    60   28   72 1
    61   30   31 am
    62   30   73 1
    63   31   32 2
    64   31   33 1
    65   33   34 1
    66   33   43 1
    67   33   35 1
    68   35   36 1
    69   35   74 1
    70   35   75 1
    71   36   41 ar
    72   36   37 ar
    73   37   38 ar
    74   37   76 1
    75   38   39 ar
    76   38   77 1
    77   39   40 ar
    78   39   78 1
    79   40   41 ar
    80   40   79 1
    81   41   42 1
    82   42   43 1
    83   42   80 1
    84   42   81 1
    85   43   82 1
    86   44   83 1
    87   45   84 1
@<TRIPOS>MOLECULE
CHEMBL41954
   71    72     0     0     0
SMALL
USER_CHARGES

@<TRIPOS>ATOM
      1 C1         -1.1582    1.8729    7.6770 C.3       1 <0>        -0.1550
      2 C2         -1.0208    0.3678    7.4394 C.3       1 <0>        -0.1219
      3 C3          0.2855    0.0862    6.6943 C.3       1 <0>        -0.1338
      4 C4          0.4230   -1.4189    6.4568 C.3       1 <0>         0.1156
      5 N1          1.6738   -1.6885    5.7433 N.am      1 <0>        -0.7237
      6 C5          2.0080   -2.9545    5.4239 C.2       1 <0>         0.5154
      7 O1          1.2733   -3.8705    5.7270 O.2       1 <0>        -0.5461
      8 C6          3.2947   -3.2318    4.6900 C.3       1 <0>        -0.1087
      9 H1          4.1363   -2.8798    5.2865 H         1 <0>         0.1128
     10 C7          3.2822   -2.5022    3.3452 C.3       1 <0>        -0.1508
     11 C8          3.4321   -4.7370    4.4524 C.3       1 <0>        -0.1527
     12 C9          3.8273   -5.4257    5.7602 C.3       1 <0>         0.0879
     13 H2          3.1203   -5.1516    6.5432 H         1 <0>         0.1516
     14 C10         3.8076   -6.9429    5.5637 C.3       1 <0>        -0.0087
     15 H3          2.8051   -7.2590    5.2751 H         1 <0>         0.1584
     16 C11         4.2027   -7.6317    6.8715 C.3       1 <0>        -0.1279
     17 C12         4.0084   -9.1428    6.7311 C.3       1 <0>        -0.0764
     18 C13         2.5849   -9.4314    6.2501 C.3       1 <0>        -0.1624
     19 C14         5.0114   -9.6938    5.7156 C.3       1 <0>        -0.1787
     20 C15         4.2345   -9.8143    8.0871 C.3       1 <0>        -0.1048
     21 C16         4.0401  -11.3254    7.9467 C.3       1 <0>        -0.0836
     22 C17         4.2628  -11.9868    9.2823 C.ar      1 <0>        -0.0802
     23 C18         5.4848  -12.4968    9.5980 C.ar      1 <0>        -0.1108
     24 C19         5.7096  -13.1118   10.8278 C.ar      1 <0>        -0.1170
     25 C20         4.7136  -13.2210   11.7493 C.ar      1 <0>        -0.1022
     26 C21         3.4388  -12.7064   11.4592 C.ar      1 <0>        -0.0518
     27 C22         3.2118  -12.0752   10.2105 C.ar      1 <0>        -0.0453
     28 C23         1.9380  -11.5553    9.9229 C.ar      1 <0>        -0.1152
     29 C24         0.9440  -11.6592   10.8465 C.ar      1 <0>        -0.1106
     30 C25         1.1690  -12.2741   12.0769 C.ar      1 <0>        -0.1163
     31 C26         2.3855  -12.8008   12.3851 C.ar      1 <0>        -0.1019
     32 N2          4.7604   -7.3124    4.5084 N.4       1 <0>        -0.6461
     33 O2          5.1415   -5.0114    6.1386 O.3       1 <0>        -0.5356
     34 H4         -1.1671    2.3927    6.7190 H         1 <0>         0.0556
     35 H5         -2.0889    2.0735    8.2078 H         1 <0>         0.0593
     36 H6         -0.3166    2.2249    8.2735 H         1 <0>         0.0555
     37 H7         -1.0119   -0.1520    8.3975 H         1 <0>         0.0658
     38 H8         -1.8624    0.0158    6.8429 H         1 <0>         0.0659
     39 H9          0.2766    0.6060    5.7363 H         1 <0>         0.0706
     40 H10         1.1272    0.4382    7.2909 H         1 <0>         0.0705
     41 H11         0.4318   -1.9387    7.4148 H         1 <0>         0.0705
     42 H12        -0.4187   -1.7710    5.8602 H         1 <0>         0.0709
     43 H13         2.2614   -0.9558    5.5009 H         1 <0>         0.4035
     44 H14         3.0998   -1.4402    3.5096 H         1 <0>         0.0693
     45 H15         4.2453   -2.6333    2.8517 H         1 <0>         0.0716
     46 H16         2.4927   -2.9133    2.7161 H         1 <0>         0.0656
     47 H17         2.4806   -5.1381    4.1036 H         1 <0>         0.1033
     48 H18         4.2001   -4.9174    3.7002 H         1 <0>         0.0716
     49 H19         5.2486   -7.4189    7.0927 H         1 <0>         0.0971
     50 H20         3.5768   -7.2587    7.6822 H         1 <0>         0.1157
     51 H21         2.4238   -8.9530    5.2840 H         1 <0>         0.0505
     52 H22         2.4464  -10.5079    6.1500 H         1 <0>         0.0762
     53 H23         1.8703   -9.0388    6.9735 H         1 <0>         0.0726
     54 H24         5.9524   -9.1506    5.8029 H         1 <0>         0.0628
     55 H25         5.1832  -10.7521    5.9120 H         1 <0>         0.0946
     56 H26         4.6132   -9.5712    4.7083 H         1 <0>         0.0476
     57 H27         5.2486   -9.6087    8.4298 H         1 <0>         0.0725
     58 H28         3.5199   -9.4218    8.8106 H         1 <0>         0.0758
     59 H29         3.0260  -11.5310    7.6040 H         1 <0>         0.0793
     60 H30         4.7547  -11.7179    7.2232 H         1 <0>         0.0768
     61 H31         6.2921  -12.4239    8.8843 H         1 <0>         0.1200
     62 H32         6.6886  -13.5082   11.0533 H         1 <0>         0.1250
     63 H33         4.9022  -13.7009   12.6982 H         1 <0>         0.1290
     64 H34         1.7492  -11.0755    8.9739 H         1 <0>         0.1238
     65 H35        -0.0338  -11.2589   10.6229 H         1 <0>         0.1234
     66 H36         0.3629  -12.3431   12.7924 H         1 <0>         0.1257
     67 H37         2.5450  -13.2752   13.3422 H         1 <0>         0.1295
     68 H38         5.6764   -7.4396    4.9118 H         1 <0>         0.4322
     69 H39         4.4625   -8.1722    4.0724 H         1 <0>         0.4367
     70 H40         5.8237   -5.2236    5.4869 H         1 <0>         0.3663
     71 H41         4.7966   -6.5792    3.8162 H         1 <0>         0.4238
@<TRIPOS>BOND
     1    1    2 1
     2    1   34 1
     3    1   35 1
     4    1   36 1
     5    2    3 1
     6    2   37 1
     7    2   38 1
     8    3    4 1
     9    3   39 1
    10    3   40 1
    11    4    5 1
    12    4   41 1
    13    4   42 1
    14    5    6 am
    15    5   43 1
    16    6    7 2
    17    6    8 1
    18    8    9 1
    19    8   10 1
    20    8   11 1
    21   10   44 1
    22   10   45 1
    23   10   46 1
    24   11   12 1
    25   11   47 1
    26   11   48 1
    27   12   13 1
    28   12   14 1
    29   12   33 1
    30   14   15 1
    31   14   16 1
    32   14   32 1
    33   16   17 1
    34   16   49 1
    35   16   50 1
    36   17   18 1
    37   17   19 1
    38   17   20 1
    39   18   51 1
    40   18   52 1
    41   18   53 1
    42   19   54 1
    43   19   55 1
    44   19   56 1
    45   20   21 1
    46   20   57 1
    47   20   58 1
    48   21   22 1
    49   21   59 1
    50   21   60 1
    51   22   27 ar
    52   22   23 ar
    53   23   24 ar
    54   23   61 1
    55   24   25 ar
    56   24   62 1
    57   25   26 ar
    58   25   63 1
    59   26   31 ar
    60   26   27 ar
    61   27   28 ar
    62   28   29 ar
    63   28   64 1
    64   29   30 ar
    65   29   65 1
    66   30   31 ar
    67   30   66 1
    68   31   67 1
    69   32   68 1
    70   32   69 1
    71   32   71 1
    72   33   70 1
@<TRIPOS>MOLECULE
CHEMBL70198
   84    87     0     0     0
SMALL
USER_CHARGES

@<TRIPOS>ATOM
      1 C1         -0.0167    1.3784    0.0096 C.ar      1 <0>        -0.1476
      2 C2          1.1698    2.0883    0.0021 C.ar      1 <0>        -0.0776
      3 C3          2.3773    1.4175   -0.0134 C.ar      1 <0>        -0.1458
      4 C4          2.3989    0.0304   -0.0210 C.ar      1 <0>         0.1161
      5 C5          1.2070   -0.6796   -0.0130 C.ar      1 <0>        -0.2085
      6 C6          0.0021   -0.0041    0.0020 C.ar      1 <0>        -0.0774
      7 O1          3.5855   -0.6319   -0.0368 O.3       1 <0>        -0.2949
      8 C7          3.5315   -2.0598   -0.0438 C.3       1 <0>         0.0368
      9 C8          4.9322   -2.6155   -0.0612 C.2       1 <0>         0.5256
     10 O2          5.8831   -1.8627   -0.0670 O.2       1 <0>        -0.5219
     11 N1          5.1282   -3.9489   -0.0703 N.am      1 <0>        -0.7091
     12 C9          6.4899   -4.4890   -0.0872 C.3       1 <0>         0.1322
     13 C10         6.9955   -4.5525   -1.5299 C.3       1 <0>        -0.0715
     14 C11         7.1138   -3.1556   -2.0827 C.2       1 <0>         0.0395
     15 C12         6.1200   -2.4388   -2.6414 C.2       1 <0>         0.0460
     16 N2          6.6570   -1.2330   -3.0042 N.pl3     1 <0>        -0.4988
     17 H1          6.1883   -0.4998   -3.4326 H         1 <0>         0.4664
     18 C13         7.9611   -1.2550   -2.6542 C.cat     1 <0>         0.3139
     19 N3          8.2260   -2.4060   -2.0991 N.pl3     1 <0>        -0.4682
     20 C14         6.4882   -5.8744    0.5059 C.2       1 <0>         0.5098
     21 O3          5.4516   -6.3625    0.9036 O.2       1 <0>        -0.4925
     22 N4          7.6386   -6.5709    0.5945 N.am      1 <0>        -0.7168
     23 C15         7.6369   -7.9177    1.1711 C.3       1 <0>         0.1178
     24 H2          6.9036   -7.9674    1.9760 H         1 <0>         0.1083
     25 C16         7.2750   -8.9358    0.0878 C.3       1 <0>        -0.1228
     26 C17         5.8384   -8.6939   -0.3799 C.3       1 <0>        -0.0772
     27 C18         4.8729   -8.9705    0.7744 C.3       1 <0>        -0.1102
     28 C19         3.4364   -8.7287    0.3067 C.3       1 <0>        -0.1092
     29 C20         3.1161   -9.6636   -0.8613 C.3       1 <0>        -0.1244
     30 C21         4.0816   -9.3870   -2.0155 C.3       1 <0>        -0.1150
     31 C22         5.5181   -9.6289   -1.5478 C.3       1 <0>        -0.1177
     32 C23         9.0264   -8.2363    1.7266 C.3       1 <0>         0.1182
     33 H3          9.0251   -9.2383    2.1557 H         1 <0>         0.1269
     34 C24         9.3883   -7.2182    2.8099 C.3       1 <0>        -0.1286
     35 S1         11.0357   -7.5959    3.4686 S.3       1 <0>        -0.2267
     36 C25        11.3107   -6.3155    4.7237 C.3       1 <0>        -0.0544
     37 C26        10.3010   -6.4898    5.8599 C.3       1 <0>        -0.1144
     38 C27        10.5329   -5.4098    6.9185 C.3       1 <0>        -0.1174
     39 C28        11.9528   -5.5368    7.4741 C.3       1 <0>        -0.1242
     40 C29        12.9625   -5.3625    6.3379 C.3       1 <0>        -0.1144
     41 C30        12.7306   -6.4425    5.2793 C.3       1 <0>        -0.0999
     42 O4          9.9878   -8.1711    0.6714 O.3       1 <0>        -0.5323
     43 H4         -0.9596    1.9047    0.0260 H         1 <0>         0.1295
     44 H5          1.1525    3.1682    0.0080 H         1 <0>         0.1342
     45 H6          3.3038    1.9724   -0.0200 H         1 <0>         0.1304
     46 H7          1.2211   -1.7595   -0.0193 H         1 <0>         0.1268
     47 H8         -0.9260   -0.5563    0.0082 H         1 <0>         0.1298
     48 H9          3.0134   -2.4083    0.8497 H         1 <0>         0.1015
     49 H10         2.9951   -2.3988   -0.9302 H         1 <0>         0.0966
     50 H11         4.3676   -4.5509   -0.0657 H         1 <0>         0.4210
     51 H12         7.1440   -3.8436    0.4990 H         1 <0>         0.1211
     52 H13         7.9722   -5.0358   -1.5516 H         1 <0>         0.1111
     53 H14         6.2933   -5.1249   -2.1361 H         1 <0>         0.1235
     54 H15         5.0963   -2.7547   -2.7775 H         1 <0>         0.2128
     55 H16         8.6669   -0.4516   -2.8049 H         1 <0>         0.2645
     56 H17         8.4676   -6.1805    0.2764 H         1 <0>         0.3941
     57 H18         7.9554   -8.8253   -0.7565 H         1 <0>         0.0738
     58 H19         7.3601   -9.9438    0.4937 H         1 <0>         0.0790
     59 H20         5.7310   -7.6586   -0.7032 H         1 <0>         0.0685
     60 H21         4.9803  -10.0059    1.0977 H         1 <0>         0.0515
     61 H22         5.1011   -8.3044    1.6065 H         1 <0>         0.0754
     62 H23         2.7485   -8.9257    1.1290 H         1 <0>         0.0560
     63 H24         3.3290   -7.6933   -0.0167 H         1 <0>         0.0591
     64 H25         3.2235  -10.6990   -0.5379 H         1 <0>         0.0609
     65 H26         2.0926   -9.4913   -1.1945 H         1 <0>         0.0584
     66 H27         3.8534  -10.0531   -2.8476 H         1 <0>         0.0597
     67 H28         3.9742   -8.3517   -2.3389 H         1 <0>         0.0544
     68 H29         6.2060   -9.4319   -2.3701 H         1 <0>         0.0563
     69 H30         5.6255  -10.6643   -1.2245 H         1 <0>         0.0625
     70 H31         9.3895   -6.2162    2.3809 H         1 <0>         0.0766
     71 H32         8.6550   -7.2679    3.6148 H         1 <0>         0.0918
     72 H33        11.1838   -5.3313    4.2726 H         1 <0>         0.0816
     73 H34         9.2894   -6.3993    5.4641 H         1 <0>         0.0575
     74 H35        10.4279   -7.4739    6.3110 H         1 <0>         0.0773
     75 H36        10.4060   -4.4256    6.4674 H         1 <0>         0.0599
     76 H37         9.8135   -5.5340    7.7279 H         1 <0>         0.0675
     77 H38        12.1180   -4.7674    8.2283 H         1 <0>         0.0665
     78 H39        12.0797   -6.5209    7.9252 H         1 <0>         0.0662
     79 H40        12.8356   -4.3784    5.8868 H         1 <0>         0.0621
     80 H41        13.9741   -5.4530    6.7338 H         1 <0>         0.0714
     81 H42        12.8575   -7.4266    5.7304 H         1 <0>         0.0740
     82 H43        13.4499   -6.3183    4.4699 H         1 <0>         0.0720
     83 H44        10.0433   -7.3061    0.2428 H         1 <0>         0.3632
     84 H45         9.0911   -2.6773   -1.7545 H         1 <0>         0.4618
@<TRIPOS>BOND
     1    1    6 ar
     2    1    2 ar
     3    1   43 1
     4    2    3 ar
     5    2   44 1
     6    3    4 ar
     7    3   45 1
     8    4    5 ar
     9    4    7 1
    10    5    6 ar
    11    5   46 1
    12    6   47 1
    13    7    8 1
    14    8    9 1
    15    8   48 1
    16    8   49 1
    17    9   10 2
    18    9   11 am
    19   11   12 1
    20   11   50 1
    21   12   13 1
    22   12   20 1
    23   12   51 1
    24   13   14 1
    25   13   52 1
    26   13   53 1
    27   14   19 1
    28   14   15 2
    29   15   16 1
    30   15   54 1
    31   16   17 1
    32   16   18 1
    33   18   19 2
    34   18   55 1
    35   19   84 1
    36   20   21 2
    37   20   22 am
    38   22   23 1
    39   22   56 1
    40   23   24 1
    41   23   25 1
    42   23   32 1
    43   25   26 1
    44   25   57 1
    45   25   58 1
    46   26   31 1
    47   26   27 1
    48   26   59 1
    49   27   28 1
    50   27   60 1
    51   27   61 1
    52   28   29 1
    53   28   62 1
    54   28   63 1
    55   29   30 1
    56   29   64 1
    57   29   65 1
    58   30   31 1
    59   30   66 1
    60   30   67 1
    61   31   68 1
    62   31   69 1
    63   32   33 1
    64   32   34 1
    65   32   42 1
    66   34   35 1
    67   34   70 1
    68   34   71 1
    69   35   36 1
    70   36   41 1
    71   36   37 1
    72   36   72 1
    73   37   38 1
    74   37   73 1
    75   37   74 1
    76   38   39 1
    77   38   75 1
    78   38   76 1
    79   39   40 1
    80   39   77 1
    81   39   78 1
    82   40   41 1
    83   40   79 1
    84   40   80 1
    85   41   81 1
    86   41   82 1
    87   42   83 1
@<TRIPOS>MOLECULE
CHEMBL70198__1
   83    86     0     0     0
SMALL
USER_CHARGES

@<TRIPOS>ATOM
      1 C1         -0.0167    1.3784    0.0096 C.ar      1 <0>        -0.1558
      2 C2          1.1698    2.0883    0.0021 C.ar      1 <0>        -0.0785
      3 C3          2.3773    1.4175   -0.0134 C.ar      1 <0>        -0.1462
      4 C4          2.3989    0.0304   -0.0210 C.ar      1 <0>         0.1257
      5 C5          1.2070   -0.6796   -0.0130 C.ar      1 <0>        -0.2118
      6 C6          0.0021   -0.0041    0.0020 C.ar      1 <0>        -0.0798
      7 O1          3.5855   -0.6319   -0.0368 O.3       1 <0>        -0.2870
      8 C7          3.5315   -2.0598   -0.0438 C.3       1 <0>         0.0432
      9 C8          4.9322   -2.6155   -0.0612 C.2       1 <0>         0.5110
     10 O2          5.8831   -1.8627   -0.0670 O.2       1 <0>        -0.4826
     11 N1          5.1282   -3.9489   -0.0703 N.am      1 <0>        -0.7136
     12 C9          6.4899   -4.4890   -0.0872 C.3       1 <0>         0.1362
     13 C10         6.9955   -4.5525   -1.5299 C.3       1 <0>        -0.0482
     14 C11         7.1138   -3.1556   -2.0827 C.2       1 <0>        -0.0219
     15 C12         8.1626   -2.3226   -1.9418 C.2       1 <0>         0.0001
     16 N2          7.8733   -1.1794   -2.5808 N.2       1 <0>        -0.4862
     17 H1          5.3121   -2.8323   -3.1022 H         1 <0>         0.4106
     18 C13         6.6851   -1.2722   -3.1123 C.2       1 <0>         0.1982
     19 N3          6.1783   -2.4916   -2.8295 N.pl3     1 <0>        -0.5638
     20 C14         6.4882   -5.8744    0.5059 C.2       1 <0>         0.5144
     21 O3          5.4516   -6.3625    0.9036 O.2       1 <0>        -0.5095
     22 N4          7.6386   -6.5709    0.5945 N.am      1 <0>        -0.7195
     23 C15         7.6369   -7.9177    1.1711 C.3       1 <0>         0.1183
     24 H2          6.9036   -7.9674    1.9760 H         1 <0>         0.1045
     25 C16         7.2750   -8.9358    0.0878 C.3       1 <0>        -0.1210
     26 C17         5.8384   -8.6939   -0.3799 C.3       1 <0>        -0.0799
     27 C18         4.8729   -8.9705    0.7744 C.3       1 <0>        -0.1073
     28 C19         3.4364   -8.7287    0.3067 C.3       1 <0>        -0.1100
     29 C20         3.1161   -9.6636   -0.8613 C.3       1 <0>        -0.1218
     30 C21         4.0816   -9.3870   -2.0155 C.3       1 <0>        -0.1159
     31 C22         5.5181   -9.6289   -1.5478 C.3       1 <0>        -0.1161
     32 C23         9.0264   -8.2363    1.7266 C.3       1 <0>         0.1199
     33 H3          9.0251   -9.2383    2.1557 H         1 <0>         0.1225
     34 C24         9.3883   -7.2182    2.8099 C.3       1 <0>        -0.1276
     35 S1         11.0357   -7.5959    3.4686 S.3       1 <0>        -0.2313
     36 C25        11.3107   -6.3155    4.7237 C.3       1 <0>        -0.0562
     37 C26        10.3010   -6.4898    5.8599 C.3       1 <0>        -0.1135
     38 C27        10.5329   -5.4098    6.9185 C.3       1 <0>        -0.1181
     39 C28        11.9528   -5.5368    7.4741 C.3       1 <0>        -0.1224
     40 C29        12.9625   -5.3625    6.3379 C.3       1 <0>        -0.1150
     41 C30        12.7306   -6.4425    5.2793 C.3       1 <0>        -0.0984
     42 O4          9.9878   -8.1711    0.6714 O.3       1 <0>        -0.5366
     43 H4         -0.9596    1.9047    0.0260 H         1 <0>         0.1255
     44 H5          1.1525    3.1682    0.0080 H         1 <0>         0.1316
     45 H6          3.3038    1.9724   -0.0200 H         1 <0>         0.1328
     46 H7          1.2211   -1.7595   -0.0193 H         1 <0>         0.1256
     47 H8         -0.9260   -0.5563    0.0082 H         1 <0>         0.1259
     48 H9          3.0134   -2.4083    0.8497 H         1 <0>         0.0931
     49 H10         2.9951   -2.3988   -0.9302 H         1 <0>         0.0886
     50 H11         4.3676   -4.5509   -0.0657 H         1 <0>         0.4099
     51 H12         7.1440   -3.8436    0.4990 H         1 <0>         0.1197
     52 H13         7.9722   -5.0358   -1.5516 H         1 <0>         0.0995
     53 H14         6.2933   -5.1249   -2.1361 H         1 <0>         0.0798
     54 H15         9.0765   -2.5375   -1.4078 H         1 <0>         0.1608
     55 H16         6.1904   -0.5027   -3.6863 H         1 <0>         0.2008
     56 H17         8.4676   -6.1805    0.2764 H         1 <0>         0.3977
     57 H18         7.9554   -8.8253   -0.7565 H         1 <0>         0.0736
     58 H19         7.3601   -9.9438    0.4937 H         1 <0>         0.0743
     59 H20         5.7310   -7.6586   -0.7032 H         1 <0>         0.0733
     60 H21         4.9803  -10.0059    1.0977 H         1 <0>         0.0479
     61 H22         5.1011   -8.3044    1.6065 H         1 <0>         0.0769
     62 H23         2.7485   -8.9257    1.1290 H         1 <0>         0.0537
     63 H24         3.3290   -7.6933   -0.0167 H         1 <0>         0.0612
     64 H25         3.2235  -10.6990   -0.5379 H         1 <0>         0.0586
     65 H26         2.0926   -9.4913   -1.1945 H         1 <0>         0.0562
     66 H27         3.8534  -10.0531   -2.8476 H         1 <0>         0.0576
     67 H28         3.9742   -8.3517   -2.3389 H         1 <0>         0.0561
     68 H29         6.2060   -9.4319   -2.3701 H         1 <0>         0.0566
     69 H30         5.6255  -10.6643   -1.2245 H         1 <0>         0.0597
     70 H31         9.3895   -6.2162    2.3809 H         1 <0>         0.0820
     71 H32         8.6550   -7.2679    3.6148 H         1 <0>         0.0904
     72 H33        11.1838   -5.3313    4.2726 H         1 <0>         0.0845
     73 H34         9.2894   -6.3993    5.4641 H         1 <0>         0.0588
     74 H35        10.4279   -7.4739    6.3110 H         1 <0>         0.0752
     75 H36        10.4060   -4.4256    6.4674 H         1 <0>         0.0618
     76 H37         9.8135   -5.5340    7.7279 H         1 <0>         0.0659
     77 H38        12.1180   -4.7674    8.2283 H         1 <0>         0.0647
     78 H39        12.0797   -6.5209    7.9252 H         1 <0>         0.0642
     79 H40        12.8356   -4.3784    5.8868 H         1 <0>         0.0638
     80 H41        13.9741   -5.4530    6.7338 H         1 <0>         0.0693
     81 H42        12.8575   -7.4266    5.7304 H         1 <0>         0.0718
     82 H43        13.4499   -6.3183    4.4699 H         1 <0>         0.0723
     83 H44        10.0433   -7.3061    0.2428 H         1 <0>         0.3692
@<TRIPOS>BOND
     1    1    6 ar
     2    1    2 ar
     3    1   43 1
     4    2    3 ar
     5    2   44 1
     6    3    4 ar
     7    3   45 1
     8    4    5 ar
     9    4    7 1
    10    5    6 ar
    11    5   46 1
    12    6   47 1
    13    7    8 1
    14    8    9 1
    15    8   48 1
    16    8   49 1
    17    9   10 2
    18    9   11 am
    19   11   12 1
    20   11   50 1
    21   12   13 1
    22   12   20 1
    23   12   51 1
    24   13   52 1
    25   13   53 1
    26   13   14 1
    27   14   15 2
    28   14   19 1
    29   15   16 1
    30   15   54 1
    31   16   18 2
    32   17   19 1
    33   18   55 1
    34   18   19 1
    35   20   21 2
    36   20   22 am
    37   22   23 1
    38   22   56 1
    39   23   24 1
    40   23   25 1
    41   23   32 1
    42   25   26 1
    43   25   57 1
    44   25   58 1
    45   26   31 1
    46   26   27 1
    47   26   59 1
    48   27   28 1
    49   27   60 1
    50   27   61 1
    51   28   29 1
    52   28   62 1
    53   28   63 1
    54   29   30 1
    55   29   64 1
    56   29   65 1
    57   30   31 1
    58   30   66 1
    59   30   67 1
    60   31   68 1
    61   31   69 1
    62   32   33 1
    63   32   34 1
    64   32   42 1
    65   34   35 1
    66   34   70 1
    67   34   71 1
    68   35   36 1
    69   36   41 1
    70   36   37 1
    71   36   72 1
    72   37   38 1
    73   37   73 1
    74   37   74 1
    75   38   39 1
    76   38   75 1
    77   38   76 1
    78   39   40 1
    79   39   77 1
    80   39   78 1
    81   40   41 1
    82   40   79 1
    83   40   80 1
    84   41   81 1
    85   41   82 1
    86   42   83 1
@<TRIPOS>MOLECULE
CHEMBL70198__2
   83    86     0     0     0
SMALL
USER_CHARGES

@<TRIPOS>ATOM
      1 C1         -0.0167    1.3784    0.0096 C.ar      1 <0>        -0.1599
      2 C2          1.1698    2.0883    0.0021 C.ar      1 <0>        -0.0801
      3 C3          2.3773    1.4175   -0.0134 C.ar      1 <0>        -0.1505
      4 C4          2.3989    0.0304   -0.0210 C.ar      1 <0>         0.1311
      5 C5          1.2070   -0.6796   -0.0130 C.ar      1 <0>        -0.2118
      6 C6          0.0021   -0.0041    0.0020 C.ar      1 <0>        -0.0794
      7 O1          3.5855   -0.6319   -0.0368 O.3       1 <0>        -0.2857
      8 C7          3.5315   -2.0598   -0.0438 C.3       1 <0>         0.0508
      9 C8          4.9322   -2.6155   -0.0612 C.2       1 <0>         0.5467
     10 O2          5.8831   -1.8627   -0.0670 O.2       1 <0>        -0.4945
     11 N1          5.1282   -3.9489   -0.0703 N.am      1 <0>        -0.7118
     12 C9          6.4899   -4.4890   -0.0872 C.3       1 <0>         0.1459
     13 C10         6.9955   -4.5525   -1.5299 C.3       1 <0>        -0.0386
     14 C11         7.1138   -3.1556   -2.0827 C.2       1 <0>        -0.0006
     15 C12         8.2180   -2.6115   -2.6287 C.2       1 <0>        -0.0538
     16 N2          7.8894   -1.3351   -2.9982 N.pl3     1 <0>        -0.5712
     17 H1          8.4767   -0.6889   -3.4206 H         1 <0>         0.4177
     18 C13         6.5949   -1.1435   -2.6648 C.2       1 <0>         0.1946
     19 N3          6.1361   -2.2381   -2.1223 N.2       1 <0>        -0.4537
     20 C14         6.4882   -5.8744    0.5059 C.2       1 <0>         0.5133
     21 O3          5.4516   -6.3625    0.9036 O.2       1 <0>        -0.5101
     22 N4          7.6386   -6.5709    0.5945 N.am      1 <0>        -0.7219
     23 C15         7.6369   -7.9177    1.1711 C.3       1 <0>         0.1184
     24 H2          6.9036   -7.9674    1.9760 H         1 <0>         0.1039
     25 C16         7.2750   -8.9358    0.0878 C.3       1 <0>        -0.1202
     26 C17         5.8384   -8.6939   -0.3799 C.3       1 <0>        -0.0808
     27 C18         4.8729   -8.9705    0.7744 C.3       1 <0>        -0.1066
     28 C19         3.4364   -8.7287    0.3067 C.3       1 <0>        -0.1107
     29 C20         3.1161   -9.6636   -0.8613 C.3       1 <0>        -0.1212
     30 C21         4.0816   -9.3870   -2.0155 C.3       1 <0>        -0.1167
     31 C22         5.5181   -9.6289   -1.5478 C.3       1 <0>        -0.1152
     32 C23         9.0264   -8.2363    1.7266 C.3       1 <0>         0.1201
     33 H3          9.0251   -9.2383    2.1557 H         1 <0>         0.1219
     34 C24         9.3883   -7.2182    2.8099 C.3       1 <0>        -0.1266
     35 S1         11.0357   -7.5959    3.4686 S.3       1 <0>        -0.2327
     36 C25        11.3107   -6.3155    4.7237 C.3       1 <0>        -0.0562
     37 C26        10.3010   -6.4898    5.8599 C.3       1 <0>        -0.1137
     38 C27        10.5329   -5.4098    6.9185 C.3       1 <0>        -0.1181
     39 C28        11.9528   -5.5368    7.4741 C.3       1 <0>        -0.1223
     40 C29        12.9625   -5.3625    6.3379 C.3       1 <0>        -0.1149
     41 C30        12.7306   -6.4425    5.2793 C.3       1 <0>        -0.0983
     42 O4          9.9878   -8.1711    0.6714 O.3       1 <0>        -0.5372
     43 H4         -0.9596    1.9047    0.0260 H         1 <0>         0.1235
     44 H5          1.1525    3.1682    0.0080 H         1 <0>         0.1291
     45 H6          3.3038    1.9724   -0.0200 H         1 <0>         0.1303
     46 H7          1.2211   -1.7595   -0.0193 H         1 <0>         0.1269
     47 H8         -0.9260   -0.5563    0.0082 H         1 <0>         0.1247
     48 H9          3.0134   -2.4083    0.8497 H         1 <0>         0.0838
     49 H10         2.9951   -2.3988   -0.9302 H         1 <0>         0.0901
     50 H11         4.3676   -4.5509   -0.0657 H         1 <0>         0.4059
     51 H12         7.1440   -3.8436    0.4990 H         1 <0>         0.1100
     52 H13         7.9722   -5.0358   -1.5516 H         1 <0>         0.0833
     53 H14         6.2933   -5.1249   -2.1361 H         1 <0>         0.0820
     54 H15         9.1784   -3.0901   -2.7513 H         1 <0>         0.1694
     55 H16         6.0314   -0.2361   -2.8245 H         1 <0>         0.1987
     56 H17         8.4676   -6.1805    0.2764 H         1 <0>         0.3961
     57 H18         7.9554   -8.8253   -0.7565 H         1 <0>         0.0728
     58 H19         7.3601   -9.9438    0.4937 H         1 <0>         0.0728
     59 H20         5.7310   -7.6586   -0.7032 H         1 <0>         0.0756
     60 H21         4.9803  -10.0059    1.0977 H         1 <0>         0.0465
     61 H22         5.1011   -8.3044    1.6065 H         1 <0>         0.0769
     62 H23         2.7485   -8.9257    1.1290 H         1 <0>         0.0531
     63 H24         3.3290   -7.6933   -0.0167 H         1 <0>         0.0633
     64 H25         3.2235  -10.6990   -0.5379 H         1 <0>         0.0574
     65 H26         2.0926   -9.4913   -1.1945 H         1 <0>         0.0561
     66 H27         3.8534  -10.0531   -2.8476 H         1 <0>         0.0569
     67 H28         3.9742   -8.3517   -2.3389 H         1 <0>         0.0582
     68 H29         6.2060   -9.4319   -2.3701 H         1 <0>         0.0563
     69 H30         5.6255  -10.6643   -1.2245 H         1 <0>         0.0584
     70 H31         9.3895   -6.2162    2.3809 H         1 <0>         0.0818
     71 H32         8.6550   -7.2679    3.6148 H         1 <0>         0.0907
     72 H33        11.1838   -5.3313    4.2726 H         1 <0>         0.0838
     73 H34         9.2894   -6.3993    5.4641 H         1 <0>         0.0594
     74 H35        10.4279   -7.4739    6.3110 H         1 <0>         0.0753
     75 H36        10.4060   -4.4256    6.4674 H         1 <0>         0.0616
     76 H37         9.8135   -5.5340    7.7279 H         1 <0>         0.0662
     77 H38        12.1180   -4.7674    8.2283 H         1 <0>         0.0645
     78 H39        12.0797   -6.5209    7.9252 H         1 <0>         0.0644
     79 H40        12.8356   -4.3784    5.8868 H         1 <0>         0.0632
     80 H41        13.9741   -5.4530    6.7338 H         1 <0>         0.0691
     81 H42        12.8575   -7.4266    5.7304 H         1 <0>         0.0720
     82 H43        13.4499   -6.3183    4.4699 H         1 <0>         0.0718
     83 H44        10.0433   -7.3061    0.2428 H         1 <0>         0.3687
@<TRIPOS>BOND
     1    1    6 ar
     2    1    2 ar
     3    1   43 1
     4    2    3 ar
     5    2   44 1
     6    3    4 ar
     7    3   45 1
     8    4    5 ar
     9    4    7 1
    10    5    6 ar
    11    5   46 1
    12    6   47 1
    13    7    8 1
    14    8    9 1
    15    8   48 1
    16    8   49 1
    17    9   10 2
    18    9   11 am
    19   11   12 1
    20   11   50 1
    21   12   13 1
    22   12   20 1
    23   12   51 1
    24   13   14 1
    25   13   52 1
    26   13   53 1
    27   14   19 1
    28   14   15 2
    29   15   16 1
    30   15   54 1
    31   16   17 1
    32   16   18 1
    33   18   19 2
    34   18   55 1
    35   20   21 2
    36   20   22 am
    37   22   23 1
    38   22   56 1
    39   23   24 1
    40   23   25 1
    41   23   32 1
    42   25   26 1
    43   25   57 1
    44   25   58 1
    45   26   31 1
    46   26   27 1
    47   26   59 1
    48   27   28 1
    49   27   60 1
    50   27   61 1
    51   28   29 1
    52   28   62 1
    53   28   63 1
    54   29   30 1
    55   29   64 1
    56   29   65 1
    57   30   31 1
    58   30   66 1
    59   30   67 1
    60   31   68 1
    61   31   69 1
    62   32   33 1
    63   32   34 1
    64   32   42 1
    65   34   35 1
    66   34   70 1
    67   34   71 1
    68   35   36 1
    69   36   41 1
    70   36   37 1
    71   36   72 1
    72   37   38 1
    73   37   73 1
    74   37   74 1
    75   38   39 1
    76   38   75 1
    77   38   76 1
    78   39   40 1
    79   39   77 1
    80   39   78 1
    81   40   41 1
    82   40   79 1
    83   40   80 1
    84   41   81 1
    85   41   82 1
    86   42   83 1
@<TRIPOS>MOLECULE
CHEMBL70198__3
   84    87     0     0     0
SMALL
USER_CHARGES

@<TRIPOS>ATOM
      1 C1         -0.0167    1.3784    0.0096 C.ar      1 <0>        -0.1469
      2 C2          1.1698    2.0883    0.0021 C.ar      1 <0>        -0.0772
      3 C3          2.3773    1.4175   -0.0134 C.ar      1 <0>        -0.1448
      4 C4          2.3989    0.0304   -0.0210 C.ar      1 <0>         0.1154
      5 C5          1.2070   -0.6796   -0.0130 C.ar      1 <0>        -0.2088
      6 C6          0.0021   -0.0041    0.0020 C.ar      1 <0>        -0.0775
      7 O1          3.5855   -0.6319   -0.0368 O.3       1 <0>        -0.2945
      8 C7          3.5315   -2.0598   -0.0438 C.3       1 <0>         0.0369
      9 C8          4.9322   -2.6155   -0.0612 C.2       1 <0>         0.5190
     10 O2          5.8831   -1.8627   -0.0670 O.2       1 <0>        -0.5158
     11 N1          5.1282   -3.9489   -0.0703 N.am      1 <0>        -0.7115
     12 C9          6.4899   -4.4890   -0.0872 C.3       1 <0>         0.1300
     13 C10         7.0250   -4.5678    1.3439 C.3       1 <0>        -0.0696
     14 C11         7.1549   -3.1768    1.9090 C.2       1 <0>         0.0346
     15 C12         8.2045   -2.3497    1.7424 C.2       1 <0>         0.0549
     16 N2          7.9107   -1.1959    2.4177 N.pl3     1 <0>        -0.5004
     17 H1          8.4735   -0.4087    2.4843 H         1 <0>         0.4669
     18 C13         6.6908   -1.3582    2.9738 C.cat     1 <0>         0.3161
     19 N3          6.2428   -2.5433    2.6612 N.pl3     1 <0>        -0.4745
     20 C14         6.4758   -5.8680   -0.6949 C.2       1 <0>         0.5100
     21 O3          5.4312   -6.3519   -1.0764 O.2       1 <0>        -0.4950
     22 N4          7.6240   -6.5634   -0.8145 N.am      1 <0>        -0.7159
     23 C15         7.6104   -7.9040   -1.4053 C.3       1 <0>         0.1186
     24 H2          6.6879   -8.4140   -1.1276 H         1 <0>         0.1082
     25 C16         7.6918   -7.7907   -2.9289 C.3       1 <0>        -0.1240
     26 C17         6.4315   -7.1027   -3.4572 C.3       1 <0>        -0.0784
     27 C18         5.2139   -7.9872   -3.1816 C.3       1 <0>        -0.1076
     28 C19         3.9536   -7.2992   -3.7099 C.3       1 <0>        -0.1094
     29 C20         4.0894   -7.0736   -5.2171 C.3       1 <0>        -0.1236
     30 C21         5.3069   -6.1891   -5.4927 C.3       1 <0>        -0.1163
     31 C22         6.5672   -6.8771   -4.9644 C.3       1 <0>        -0.1174
     32 C23         8.8095   -8.7013   -0.8884 C.3       1 <0>         0.1178
     33 H3          8.7993   -9.6987   -1.3279 H         1 <0>         0.1264
     34 C24         8.7281   -8.8146    0.6352 C.3       1 <0>        -0.1274
     35 S1         10.1498   -9.7600    1.2481 S.3       1 <0>        -0.2248
     36 C25         9.9067   -9.8026    3.0452 C.3       1 <0>        -0.0544
     37 C26         8.6406  -10.5979    3.3699 C.3       1 <0>        -0.1146
     38 C27         8.4355  -10.6338    4.8857 C.3       1 <0>        -0.1163
     39 C28         9.6418  -11.3028    5.5478 C.3       1 <0>        -0.1248
     40 C29        10.9079  -10.5075    5.2231 C.3       1 <0>        -0.1139
     41 C30        11.1129  -10.4716    3.7073 C.3       1 <0>        -0.1009
     42 O4         10.0188   -8.0327   -1.2524 O.3       1 <0>        -0.5323
     43 H4         -0.9596    1.9047    0.0260 H         1 <0>         0.1298
     44 H5          1.1525    3.1682    0.0080 H         1 <0>         0.1346
     45 H6          3.3038    1.9724   -0.0200 H         1 <0>         0.1310
     46 H7          1.2211   -1.7595   -0.0193 H         1 <0>         0.1259
     47 H8         -0.9260   -0.5563    0.0082 H         1 <0>         0.1297
     48 H9          3.0134   -2.4083    0.8497 H         1 <0>         0.0937
     49 H10         2.9951   -2.3988   -0.9302 H         1 <0>         0.1020
     50 H11         4.3676   -4.5509   -0.0657 H         1 <0>         0.4199
     51 H12         7.1319   -3.8373   -0.6798 H         1 <0>         0.1281
     52 H13         6.3355   -5.1467    1.9584 H         1 <0>         0.1068
     53 H14         8.0020   -5.0512    1.3404 H         1 <0>         0.1232
     54 H15         9.1052   -2.5571    1.1837 H         1 <0>         0.2227
     55 H16         6.1705   -0.6267    3.5743 H         1 <0>         0.2622
     56 H17         8.4595   -6.1764   -0.5095 H         1 <0>         0.3958
     57 H18         8.5683   -7.2037   -3.2033 H         1 <0>         0.0744
     58 H19         7.7711   -8.7871   -3.3636 H         1 <0>         0.0787
     59 H20         6.3043   -6.1430   -2.9563 H         1 <0>         0.0689
     60 H21         5.3411   -8.9469   -3.6826 H         1 <0>         0.0511
     61 H22         5.1171   -8.1479   -2.1079 H         1 <0>         0.0743
     62 H23         3.0861   -7.9294   -3.5135 H         1 <0>         0.0553
     63 H24         3.8264   -6.3395   -3.2089 H         1 <0>         0.0586
     64 H25         4.2166   -8.0333   -5.7181 H         1 <0>         0.0610
     65 H26         3.1915   -6.5835   -5.5935 H         1 <0>         0.0579
     66 H27         5.4037   -6.0284   -6.5665 H         1 <0>         0.0602
     67 H28         5.1797   -5.2294   -4.9918 H         1 <0>         0.0545
     68 H29         7.4347   -6.2469   -5.1608 H         1 <0>         0.0568
     69 H30         6.6944   -7.8368   -5.4654 H         1 <0>         0.0623
     70 H31         8.7383   -7.8172    1.0748 H         1 <0>         0.0761
     71 H32         7.8056   -9.3246    0.9129 H         1 <0>         0.0915
     72 H33         9.8032   -8.7851    3.4221 H         1 <0>         0.0808
     73 H34         7.7812  -10.1213    2.8982 H         1 <0>         0.0574
     74 H35         8.7440  -11.6154    2.9930 H         1 <0>         0.0776
     75 H36         8.3321   -9.6163    5.2626 H         1 <0>         0.0585
     76 H37         7.5335  -11.2004    5.1170 H         1 <0>         0.0671
     77 H38         9.4957  -11.3284    6.6276 H         1 <0>         0.0661
     78 H39         9.7452  -12.3203    5.1709 H         1 <0>         0.0667
     79 H40        10.8045   -9.4900    5.6000 H         1 <0>         0.0614
     80 H41        11.7672  -10.9841    5.6948 H         1 <0>         0.0714
     81 H42        11.2163  -11.4891    3.3305 H         1 <0>         0.0742
     82 H43        12.0149   -9.9050    3.4760 H         1 <0>         0.0725
     83 H44        10.0961   -7.1374   -0.8952 H         1 <0>         0.3650
     84 H45         5.3861   -2.9091    2.9317 H         1 <0>         0.4580
@<TRIPOS>BOND
     1    1    6 ar
     2    1    2 ar
     3    1   43 1
     4    2    3 ar
     5    2   44 1
     6    3    4 ar
     7    3   45 1
     8    4    5 ar
     9    4    7 1
    10    5    6 ar
    11    5   46 1
    12    6   47 1
    13    7    8 1
    14    8    9 1
    15    8   48 1
    16    8   49 1
    17    9   10 2
    18    9   11 am
    19   11   12 1
    20   11   50 1
    21   12   13 1
    22   12   20 1
    23   12   51 1
    24   13   14 1
    25   13   52 1
    26   13   53 1
    27   14   19 1
    28   14   15 2
    29   15   16 1
    30   15   54 1
    31   16   17 1
    32   16   18 1
    33   18   19 2
    34   18   55 1
    35   19   84 1
    36   20   21 2
    37   20   22 am
    38   22   23 1
    39   22   56 1
    40   23   24 1
    41   23   25 1
    42   23   32 1
    43   25   26 1
    44   25   57 1
    45   25   58 1
    46   26   31 1
    47   26   27 1
    48   26   59 1
    49   27   28 1
    50   27   60 1
    51   27   61 1
    52   28   29 1
    53   28   62 1
    54   28   63 1
    55   29   30 1
    56   29   64 1
    57   29   65 1
    58   30   31 1
    59   30   66 1
    60   30   67 1
    61   31   68 1
    62   31   69 1
    63   32   33 1
    64   32   34 1
    65   32   42 1
    66   34   35 1
    67   34   70 1
    68   34   71 1
    69   35   36 1
    70   36   41 1
    71   36   37 1
    72   36   72 1
    73   37   38 1
    74   37   73 1
    75   37   74 1
    76   38   39 1
    77   38   75 1
    78   38   76 1
    79   39   40 1
    80   39   77 1
    81   39   78 1
    82   40   41 1
    83   40   79 1
    84   40   80 1
    85   41   81 1
    86   41   82 1
    87   42   83 1
@<TRIPOS>MOLECULE
CHEMBL70198__4
   83    86     0     0     0
SMALL
USER_CHARGES

@<TRIPOS>ATOM
      1 C1         -0.0167    1.3784    0.0096 C.ar      1 <0>        -0.1577
      2 C2          1.1698    2.0883    0.0021 C.ar      1 <0>        -0.0792
      3 C3          2.3773    1.4175   -0.0134 C.ar      1 <0>        -0.1464
      4 C4          2.3989    0.0304   -0.0210 C.ar      1 <0>         0.1294
      5 C5          1.2070   -0.6796   -0.0130 C.ar      1 <0>        -0.2120
      6 C6          0.0021   -0.0041    0.0020 C.ar      1 <0>        -0.0800
      7 O1          3.5855   -0.6319   -0.0368 O.3       1 <0>        -0.2849
      8 C7          3.5315   -2.0598   -0.0438 C.3       1 <0>         0.0449
      9 C8          4.9322   -2.6155   -0.0612 C.2       1 <0>         0.5212
     10 O2          5.8831   -1.8627   -0.0670 O.2       1 <0>        -0.4909
     11 N1          5.1282   -3.9489   -0.0703 N.am      1 <0>        -0.7120
     12 C9          6.4899   -4.4890   -0.0872 C.3       1 <0>         0.1388
     13 C10         7.0250   -4.5678    1.3439 C.3       1 <0>        -0.0485
     14 C11         7.1549   -3.1768    1.9090 C.2       1 <0>        -0.0225
     15 C12         6.1836   -2.4579    2.5034 C.2       1 <0>        -0.0008
     16 N2          6.7044   -1.2759    2.8650 N.2       1 <0>        -0.4825
     17 H1          9.1535   -2.6482    1.5677 H         1 <0>         0.4147
     18 C13         7.9615   -1.2351    2.5172 C.2       1 <0>         0.1942
     19 N3          8.2843   -2.4036    1.9221 N.pl3     1 <0>        -0.5605
     20 C14         6.4758   -5.8680   -0.6949 C.2       1 <0>         0.5141
     21 O3          5.4312   -6.3519   -1.0764 O.2       1 <0>        -0.5057
     22 N4          7.6240   -6.5634   -0.8145 N.am      1 <0>        -0.7208
     23 C15         7.6104   -7.9040   -1.4053 C.3       1 <0>         0.1186
     24 H2          6.6879   -8.4140   -1.1276 H         1 <0>         0.1058
     25 C16         7.6918   -7.7907   -2.9289 C.3       1 <0>        -0.1213
     26 C17         6.4315   -7.1027   -3.4572 C.3       1 <0>        -0.0811
     27 C18         5.2139   -7.9872   -3.1816 C.3       1 <0>        -0.1057
     28 C19         3.9536   -7.2992   -3.7099 C.3       1 <0>        -0.1108
     29 C20         4.0894   -7.0736   -5.2171 C.3       1 <0>        -0.1213
     30 C21         5.3069   -6.1891   -5.4927 C.3       1 <0>        -0.1171
     31 C22         6.5672   -6.8771   -4.9644 C.3       1 <0>        -0.1155
     32 C23         8.8095   -8.7013   -0.8884 C.3       1 <0>         0.1194
     33 H3          8.7993   -9.6987   -1.3279 H         1 <0>         0.1231
     34 C24         8.7281   -8.8146    0.6352 C.3       1 <0>        -0.1264
     35 S1         10.1498   -9.7600    1.2481 S.3       1 <0>        -0.2316
     36 C25         9.9067   -9.8026    3.0452 C.3       1 <0>        -0.0556
     37 C26         8.6406  -10.5979    3.3699 C.3       1 <0>        -0.1137
     38 C27         8.4355  -10.6338    4.8857 C.3       1 <0>        -0.1178
     39 C28         9.6418  -11.3028    5.5478 C.3       1 <0>        -0.1227
     40 C29        10.9079  -10.5075    5.2231 C.3       1 <0>        -0.1148
     41 C30        11.1129  -10.4716    3.7073 C.3       1 <0>        -0.0988
     42 O4         10.0188   -8.0327   -1.2524 O.3       1 <0>        -0.5364
     43 H4         -0.9596    1.9047    0.0260 H         1 <0>         0.1244
     44 H5          1.1525    3.1682    0.0080 H         1 <0>         0.1304
     45 H6          3.3038    1.9724   -0.0200 H         1 <0>         0.1319
     46 H7          1.2211   -1.7595   -0.0193 H         1 <0>         0.1262
     47 H8         -0.9260   -0.5563    0.0082 H         1 <0>         0.1253
     48 H9          3.0134   -2.4083    0.8497 H         1 <0>         0.0921
     49 H10         2.9951   -2.3988   -0.9302 H         1 <0>         0.0915
     50 H11         4.3676   -4.5509   -0.0657 H         1 <0>         0.4112
     51 H12         7.1319   -3.8373   -0.6798 H         1 <0>         0.1138
     52 H13         6.3355   -5.1467    1.9584 H         1 <0>         0.0957
     53 H14         8.0020   -5.0512    1.3404 H         1 <0>         0.0803
     54 H15         5.1640   -2.7771    2.6612 H         1 <0>         0.1522
     55 H16         8.6334   -0.4056    2.6813 H         1 <0>         0.2035
     56 H17         8.4595   -6.1764   -0.5095 H         1 <0>         0.3952
     57 H18         8.5683   -7.2037   -3.2033 H         1 <0>         0.0723
     58 H19         7.7711   -8.7871   -3.3636 H         1 <0>         0.0745
     59 H20         6.3043   -6.1430   -2.9563 H         1 <0>         0.0735
     60 H21         5.3411   -8.9469   -3.6826 H         1 <0>         0.0475
     61 H22         5.1171   -8.1479   -2.1079 H         1 <0>         0.0765
     62 H23         3.0861   -7.9294   -3.5135 H         1 <0>         0.0540
     63 H24         3.8264   -6.3395   -3.2089 H         1 <0>         0.0626
     64 H25         4.2166   -8.0333   -5.7181 H         1 <0>         0.0582
     65 H26         3.1915   -6.5835   -5.5935 H         1 <0>         0.0566
     66 H27         5.4037   -6.0284   -6.5665 H         1 <0>         0.0578
     67 H28         5.1797   -5.2294   -4.9918 H         1 <0>         0.0571
     68 H29         7.4347   -6.2469   -5.1608 H         1 <0>         0.0559
     69 H30         6.6944   -7.8368   -5.4654 H         1 <0>         0.0595
     70 H31         8.7383   -7.8172    1.0748 H         1 <0>         0.0804
     71 H32         7.8056   -9.3246    0.9129 H         1 <0>         0.0916
     72 H33         9.8032   -8.7851    3.4221 H         1 <0>         0.0833
     73 H34         7.7812  -10.1213    2.8982 H         1 <0>         0.0593
     74 H35         8.7440  -11.6154    2.9930 H         1 <0>         0.0755
     75 H36         8.3321   -9.6163    5.2626 H         1 <0>         0.0614
     76 H37         7.5335  -11.2004    5.1170 H         1 <0>         0.0665
     77 H38         9.4957  -11.3284    6.6276 H         1 <0>         0.0649
     78 H39         9.7452  -12.3203    5.1709 H         1 <0>         0.0646
     79 H40        10.8045   -9.4900    5.6000 H         1 <0>         0.0631
     80 H41        11.7672  -10.9841    5.6948 H         1 <0>         0.0694
     81 H42        11.2163  -11.4891    3.3305 H         1 <0>         0.0723
     82 H43        12.0149   -9.9050    3.4760 H         1 <0>         0.0717
     83 H44        10.0961   -7.1374   -0.8952 H         1 <0>         0.3678
@<TRIPOS>BOND
     1    1    6 ar
     2    1    2 ar
     3    1   43 1
     4    2    3 ar
     5    2   44 1
     6    3    4 ar
     7    3   45 1
     8    4    5 ar
     9    4    7 1
    10    5    6 ar
    11    5   46 1
    12    6   47 1
    13    7    8 1
    14    8    9 1
    15    8   48 1
    16    8   49 1
    17    9   10 2
    18    9   11 am
    19   11   12 1
    20   11   50 1
    21   12   13 1
    22   12   20 1
    23   12   51 1
    24   13   52 1
    25   13   53 1
    26   13   14 1
    27   14   15 2
    28   14   19 1
    29   15   16 1
    30   15   54 1
    31   16   18 2
    32   17   19 1
    33   18   55 1
    34   18   19 1
    35   20   21 2
    36   20   22 am
    37   22   23 1
    38   22   56 1
    39   23   24 1
    40   23   25 1
    41   23   32 1
    42   25   26 1
    43   25   57 1
    44   25   58 1
    45   26   31 1
    46   26   27 1
    47   26   59 1
    48   27   28 1
    49   27   60 1
    50   27   61 1
    51   28   29 1
    52   28   62 1
    53   28   63 1
    54   29   30 1
    55   29   64 1
    56   29   65 1
    57   30   31 1
    58   30   66 1
    59   30   67 1
    60   31   68 1
    61   31   69 1
    62   32   33 1
    63   32   34 1
    64   32   42 1
    65   34   35 1
    66   34   70 1
    67   34   71 1
    68   35   36 1
    69   36   41 1
    70   36   37 1
    71   36   72 1
    72   37   38 1
    73   37   73 1
    74   37   74 1
    75   38   39 1
    76   38   75 1
    77   38   76 1
    78   39   40 1
    79   39   77 1
    80   39   78 1
    81   40   41 1
    82   40   79 1
    83   40   80 1
    84   41   81 1
    85   41   82 1
    86   42   83 1
@<TRIPOS>MOLECULE
CHEMBL70198__5
   83    86     0     0     0
SMALL
USER_CHARGES

@<TRIPOS>ATOM
      1 C1         -0.0167    1.3784    0.0096 C.ar      1 <0>        -0.1575
      2 C2          1.1698    2.0883    0.0021 C.ar      1 <0>        -0.0793
      3 C3          2.3773    1.4175   -0.0134 C.ar      1 <0>        -0.1485
      4 C4          2.3989    0.0304   -0.0210 C.ar      1 <0>         0.1278
      5 C5          1.2070   -0.6796   -0.0130 C.ar      1 <0>        -0.2116
      6 C6          0.0021   -0.0041    0.0020 C.ar      1 <0>        -0.0794
      7 O1          3.5855   -0.6319   -0.0368 O.3       1 <0>        -0.2882
      8 C7          3.5315   -2.0598   -0.0438 C.3       1 <0>         0.0440
      9 C8          4.9322   -2.6155   -0.0612 C.2       1 <0>         0.5113
     10 O2          5.8831   -1.8627   -0.0670 O.2       1 <0>        -0.4777
     11 N1          5.1282   -3.9489   -0.0703 N.am      1 <0>        -0.7106
     12 C9          6.4899   -4.4890   -0.0872 C.3       1 <0>         0.1415
     13 C10         7.0250   -4.5678    1.3439 C.3       1 <0>        -0.0372
     14 C11         7.1549   -3.1768    1.9090 C.2       1 <0>         0.0053
     15 C12         6.6046   -2.7339    3.0556 C.2       1 <0>        -0.0593
     16 N2          6.9718   -1.4221    3.1902 N.pl3     1 <0>        -0.5700
     17 H1          6.7297   -0.8284    3.9181 H         1 <0>         0.4173
     18 C13         7.7342   -1.1089    2.1205 C.2       1 <0>         0.1990
     19 N3          7.8435   -2.1646    1.3611 N.2       1 <0>        -0.4538
     20 C14         6.4758   -5.8680   -0.6949 C.2       1 <0>         0.5145
     21 O3          5.4312   -6.3519   -1.0764 O.2       1 <0>        -0.5134
     22 N4          7.6240   -6.5634   -0.8145 N.am      1 <0>        -0.7204
     23 C15         7.6104   -7.9040   -1.4053 C.3       1 <0>         0.1188
     24 H2          6.6879   -8.4140   -1.1276 H         1 <0>         0.1041
     25 C16         7.6918   -7.7907   -2.9289 C.3       1 <0>        -0.1212
     26 C17         6.4315   -7.1027   -3.4572 C.3       1 <0>        -0.0812
     27 C18         5.2139   -7.9872   -3.1816 C.3       1 <0>        -0.1052
     28 C19         3.9536   -7.2992   -3.7099 C.3       1 <0>        -0.1106
     29 C20         4.0894   -7.0736   -5.2171 C.3       1 <0>        -0.1209
     30 C21         5.3069   -6.1891   -5.4927 C.3       1 <0>        -0.1170
     31 C22         6.5672   -6.8771   -4.9644 C.3       1 <0>        -0.1154
     32 C23         8.8095   -8.7013   -0.8884 C.3       1 <0>         0.1197
     33 H3          8.7993   -9.6987   -1.3279 H         1 <0>         0.1216
     34 C24         8.7281   -8.8146    0.6352 C.3       1 <0>        -0.1261
     35 S1         10.1498   -9.7600    1.2481 S.3       1 <0>        -0.2322
     36 C25         9.9067   -9.8026    3.0452 C.3       1 <0>        -0.0560
     37 C26         8.6406  -10.5979    3.3699 C.3       1 <0>        -0.1136
     38 C27         8.4355  -10.6338    4.8857 C.3       1 <0>        -0.1175
     39 C28         9.6418  -11.3028    5.5478 C.3       1 <0>        -0.1225
     40 C29        10.9079  -10.5075    5.2231 C.3       1 <0>        -0.1147
     41 C30        11.1129  -10.4716    3.7073 C.3       1 <0>        -0.0988
     42 O4         10.0188   -8.0327   -1.2524 O.3       1 <0>        -0.5376
     43 H4         -0.9596    1.9047    0.0260 H         1 <0>         0.1249
     44 H5          1.1525    3.1682    0.0080 H         1 <0>         0.1306
     45 H6          3.3038    1.9724   -0.0200 H         1 <0>         0.1313
     46 H7          1.2211   -1.7595   -0.0193 H         1 <0>         0.1265
     47 H8         -0.9260   -0.5563    0.0082 H         1 <0>         0.1258
     48 H9          3.0134   -2.4083    0.8497 H         1 <0>         0.0879
     49 H10         2.9951   -2.3988   -0.9302 H         1 <0>         0.0909
     50 H11         4.3676   -4.5509   -0.0657 H         1 <0>         0.4073
     51 H12         7.1319   -3.8373   -0.6798 H         1 <0>         0.1239
     52 H13         6.3355   -5.1467    1.9584 H         1 <0>         0.0797
     53 H14         8.0020   -5.0512    1.3404 H         1 <0>         0.0829
     54 H15         5.9912   -3.3039    3.7376 H         1 <0>         0.1658
     55 H16         8.1826   -0.1455    1.9275 H         1 <0>         0.2009
     56 H17         8.4595   -6.1764   -0.5095 H         1 <0>         0.3980
     57 H18         8.5683   -7.2037   -3.2033 H         1 <0>         0.0729
     58 H19         7.7711   -8.7871   -3.3636 H         1 <0>         0.0731
     59 H20         6.3043   -6.1430   -2.9563 H         1 <0>         0.0748
     60 H21         5.3411   -8.9469   -3.6826 H         1 <0>         0.0466
     61 H22         5.1171   -8.1479   -2.1079 H         1 <0>         0.0767
     62 H23         3.0861   -7.9294   -3.5135 H         1 <0>         0.0529
     63 H24         3.8264   -6.3395   -3.2089 H         1 <0>         0.0626
     64 H25         4.2166   -8.0333   -5.7181 H         1 <0>         0.0577
     65 H26         3.1915   -6.5835   -5.5935 H         1 <0>         0.0557
     66 H27         5.4037   -6.0284   -6.5665 H         1 <0>         0.0573
     67 H28         5.1797   -5.2294   -4.9918 H         1 <0>         0.0575
     68 H29         7.4347   -6.2469   -5.1608 H         1 <0>         0.0565
     69 H30         6.6944   -7.8368   -5.4654 H         1 <0>         0.0587
     70 H31         8.7383   -7.8172    1.0748 H         1 <0>         0.0824
     71 H32         7.8056   -9.3246    0.9129 H         1 <0>         0.0906
     72 H33         9.8032   -8.7851    3.4221 H         1 <0>         0.0839
     73 H34         7.7812  -10.1213    2.8982 H         1 <0>         0.0595
     74 H35         8.7440  -11.6154    2.9930 H         1 <0>         0.0751
     75 H36         8.3321   -9.6163    5.2626 H         1 <0>         0.0612
     76 H37         7.5335  -11.2004    5.1170 H         1 <0>         0.0658
     77 H38         9.4957  -11.3284    6.6276 H         1 <0>         0.0642
     78 H39         9.7452  -12.3203    5.1709 H         1 <0>         0.0644
     79 H40        10.8045   -9.4900    5.6000 H         1 <0>         0.0631
     80 H41        11.7672  -10.9841    5.6948 H         1 <0>         0.0689
     81 H42        11.2163  -11.4891    3.3305 H         1 <0>         0.0719
     82 H43        12.0149   -9.9050    3.4760 H         1 <0>         0.0721
     83 H44        10.0961   -7.1374   -0.8952 H         1 <0>         0.3702
@<TRIPOS>BOND
     1    1    6 ar
     2    1    2 ar
     3    1   43 1
     4    2    3 ar
     5    2   44 1
     6    3    4 ar
     7    3   45 1
     8    4    5 ar
     9    4    7 1
    10    5    6 ar
    11    5   46 1
    12    6   47 1
    13    7    8 1
    14    8    9 1
    15    8   48 1
    16    8   49 1
    17    9   10 2
    18    9   11 am
    19   11   12 1
    20   11   50 1
    21   12   13 1
    22   12   20 1
    23   12   51 1
    24   13   14 1
    25   13   52 1
    26   13   53 1
    27   14   19 1
    28   14   15 2
    29   15   16 1
    30   15   54 1
    31   16   17 1
    32   16   18 1
    33   18   19 2
    34   18   55 1
    35   20   21 2
    36   20   22 am
    37   22   23 1
    38   22   56 1
    39   23   24 1
    40   23   25 1
    41   23   32 1
    42   25   26 1
    43   25   57 1
    44   25   58 1
    45   26   31 1
    46   26   27 1
    47   26   59 1
    48   27   28 1
    49   27   60 1
    50   27   61 1
    51   28   29 1
    52   28   62 1
    53   28   63 1
    54   29   30 1
    55   29   64 1
    56   29   65 1
    57   30   31 1
    58   30   66 1
    59   30   67 1
    60   31   68 1
    61   31   69 1
    62   32   33 1
    63   32   34 1
    64   32   42 1
    65   34   35 1
    66   34   70 1
    67   34   71 1
    68   35   36 1
    69   36   41 1
    70   36   37 1
    71   36   72 1
    72   37   38 1
    73   37   73 1
    74   37   74 1
    75   38   39 1
    76   38   75 1
    77   38   76 1
    78   39   40 1
    79   39   77 1
    80   39   78 1
    81   40   41 1
    82   40   79 1
    83   40   80 1
    84   41   81 1
    85   41   82 1
    86   42   83 1
@<TRIPOS>MOLECULE
CHEMBL484897
   82    84     0     0     0
SMALL
USER_CHARGES

@<TRIPOS>ATOM
      1 C1         -0.0322    1.4688    0.0065 C.3       1 <0>        -0.0487
      2 N1         -0.0072    0.0000   -0.0002 N.4       1 <0>        -0.5062
      3 C2          0.6823   -0.4724   -1.2082 C.3       1 <0>        -0.0263
      4 C3          0.7084   -2.0022   -1.2152 C.3       1 <0>         0.1328
      5 H1          1.3118   -2.3591   -0.3805 H         1 <0>         0.1214
      6 C4          1.3144   -2.4959   -2.5304 C.3       1 <0>        -0.1229
      7 C5          1.4556   -4.0188   -2.4870 C.3       1 <0>        -0.0840
      8 C6          2.4656   -4.4067   -1.4052 C.3       1 <0>        -0.1169
      9 C7          2.6068   -5.9295   -1.3618 C.3       1 <0>        -0.1201
     10 C8          3.0953   -6.4354   -2.7206 C.3       1 <0>        -0.1234
     11 C9          2.0853   -6.0475   -3.8024 C.3       1 <0>        -0.1213
     12 C10         1.9441   -4.5246   -3.8458 C.3       1 <0>        -0.1149
     13 N2         -0.6578   -2.5145   -1.0843 N.am      1 <0>        -0.7513
     14 C11        -1.2095   -2.6582    0.1369 C.2       1 <0>         0.6940
     15 O1         -0.5430   -2.4537    1.1330 O.2       1 <0>        -0.5966
     16 N3         -2.5001   -3.0287    0.2540 N.am      1 <0>        -0.6121
     17 C12        -3.2853   -3.3918   -0.9335 C.3       1 <0>         0.1043
     18 C13        -4.5650   -2.5499   -0.9548 C.3       1 <0>        -0.1342
     19 C14        -5.3101   -2.7279    0.3701 C.3       1 <0>        -0.1140
     20 C15        -4.4295   -2.2391    1.5223 C.3       1 <0>        -0.1283
     21 H2         -4.1728   -1.1915    1.3650 H         1 <0>         0.0896
     22 C16        -3.1467   -3.0829    1.5723 C.3       1 <0>         0.1243
     23 C17        -5.1881   -2.3863    2.8428 C.3       1 <0>         0.1928
     24 C18        -4.3071   -1.8975    3.9943 C.3       1 <0>        -0.1496
     25 C19        -5.0657   -2.0446    5.3148 C.3       1 <0>        -0.1124
     26 C20        -4.1848   -1.5558    6.4663 C.3       1 <0>        -0.1172
     27 C21        -4.9434   -1.7030    7.7868 C.3       1 <0>         0.0593
     28 O2         -4.1206   -1.2464    8.8622 O.3       1 <0>        -0.3946
     29 C22        -4.7382   -1.3414   10.1474 C.3       1 <0>         0.0305
     30 C23        -6.4499   -1.5639    2.7916 C.ar      1 <0>        -0.0940
     31 C24        -7.6803   -2.1756    2.9428 C.ar      1 <0>        -0.0621
     32 C25        -8.8382   -1.4222    2.8959 C.ar      1 <0>        -0.1133
     33 C26        -8.7678   -0.0557    2.6978 C.ar      1 <0>        -0.0804
     34 C27        -7.5384    0.5587    2.5462 C.ar      1 <0>        -0.0737
     35 C28        -6.3767   -0.1954    2.5988 C.ar      1 <0>         0.1114
     36 F1         -5.1744    0.4042    2.4570 F         1 <0>        -0.1288
     37 Cl1        -7.4496    2.2744    2.2968 Cl        1 <0>        -0.0444
     38 O3         -5.5229   -3.7601    3.0493 O.3       1 <0>        -0.5433
     39 H3          0.9890    1.8496   -0.0013 H         1 <0>         0.1263
     40 H4         -0.5605    1.8272   -0.8770 H         1 <0>         0.1217
     41 H5         -0.5438    1.8194    0.9029 H         1 <0>         0.1260
     42 H6          0.4818   -0.3318    0.8177 H         1 <0>         0.4369
     43 H7          0.1541   -0.1140   -2.0917 H         1 <0>         0.1330
     44 H8          1.7036   -0.0916   -1.2161 H         1 <0>         0.1448
     45 H9          0.6637   -2.2148   -3.3585 H         1 <0>         0.0815
     46 H10         2.2963   -2.0439   -2.6704 H         1 <0>         0.0947
     47 H11         0.4886   -4.4670   -2.2587 H         1 <0>         0.0730
     48 H12         3.4326   -3.9585   -1.6335 H         1 <0>         0.0657
     49 H13         2.1176   -4.0463   -0.4372 H         1 <0>         0.0597
     50 H14         3.3263   -6.2059   -0.5911 H         1 <0>         0.0644
     51 H15         1.6398   -6.3777   -1.1335 H         1 <0>         0.0598
     52 H16         4.0624   -5.9872   -2.9488 H         1 <0>         0.0634
     53 H17         3.1959   -7.5203   -2.6896 H         1 <0>         0.0646
     54 H18         2.4334   -6.4079   -4.7704 H         1 <0>         0.0662
     55 H19         1.1183   -6.4957   -3.5741 H         1 <0>         0.0610
     56 H20         1.2246   -4.2483   -4.6165 H         1 <0>         0.0632
     57 H21         2.9112   -4.0765   -4.0741 H         1 <0>         0.0660
     58 H22        -1.1654   -2.7503   -1.8766 H         1 <0>         0.4098
     59 H23        -2.7019   -3.1926   -1.8323 H         1 <0>         0.0783
     60 H24        -3.5446   -4.4496   -0.8906 H         1 <0>         0.0835
     61 H25        -4.3071   -1.4993   -1.0888 H         1 <0>         0.0646
     62 H26        -5.2017   -2.8764   -1.7770 H         1 <0>         0.0858
     63 H27        -6.2335   -2.1492    0.3480 H         1 <0>         0.0721
     64 H28        -5.5459   -3.7822    0.5152 H         1 <0>         0.0790
     65 H29        -3.3949   -4.1161    1.8153 H         1 <0>         0.0763
     66 H30        -2.4716   -2.6798    2.3272 H         1 <0>         0.1030
     67 H31        -3.3945   -2.4923    4.0313 H         1 <0>         0.0762
     68 H32        -4.0517   -0.8496    3.8368 H         1 <0>         0.0806
     69 H33        -5.9784   -1.4498    5.2778 H         1 <0>         0.0642
     70 H34        -5.3211   -3.0925    5.4723 H         1 <0>         0.0749
     71 H35        -3.2721   -2.1506    6.5033 H         1 <0>         0.0703
     72 H36        -3.9294   -0.5079    6.3088 H         1 <0>         0.0681
     73 H37        -5.8560   -1.1082    7.7497 H         1 <0>         0.0480
     74 H38        -5.1988   -2.7509    7.9443 H         1 <0>         0.0498
     75 H39        -5.6466   -0.7391   10.1593 H         1 <0>         0.0424
     76 H40        -4.9893   -2.3818   10.3538 H         1 <0>         0.0429
     77 H41        -4.0498   -0.9757   10.9092 H         1 <0>         0.0883
     78 H42        -7.7369   -3.2430    3.0973 H         1 <0>         0.1513
     79 H43        -9.7988   -1.9015    3.0139 H         1 <0>         0.1439
     80 H44        -9.6732    0.5318    2.6610 H         1 <0>         0.1463
     81 H45        -4.7573   -4.3492    3.0928 H         1 <0>         0.3821
     82 H46        -0.9525   -0.3525    0.0071 H         1 <0>         0.4211
@<TRIPOS>BOND
     1    1    2 1
     2    1   39 1
     3    1   40 1
     4    1   41 1
     5    2    3 1
     6    2   42 1
     7    2   82 1
     8    3    4 1
     9    3   43 1
    10    3   44 1
    11    4    5 1
    12    4    6 1
    13    4   13 1
    14    6    7 1
    15    6   45 1
    16    6   46 1
    17    7   12 1
    18    7    8 1
    19    7   47 1
    20    8    9 1
    21    8   48 1
    22    8   49 1
    23    9   10 1
    24    9   50 1
    25    9   51 1
    26   10   11 1
    27   10   52 1
    28   10   53 1
    29   11   12 1
    30   11   54 1
    31   11   55 1
    32   12   56 1
    33   12   57 1
    34   13   14 am
    35   13   58 1
    36   14   15 2
    37   14   16 am
    38   16   22 1
    39   16   17 1
    40   17   18 1
    41   17   59 1
    42   17   60 1
    43   18   19 1
    44   18   61 1
    45   18   62 1
    46   19   20 1
    47   19   63 1
    48   19   64 1
    49   20   21 1
    50   20   22 1
    51   20   23 1
    52   22   65 1
    53   22   66 1
    54   23   24 1
    55   23   30 1
    56   23   38 1
    57   24   25 1
    58   24   67 1
    59   24   68 1
    60   25   26 1
    61   25   69 1
    62   25   70 1
    63   26   27 1
    64   26   71 1
    65   26   72 1
    66   27   28 1
    67   27   73 1
    68   27   74 1
    69   28   29 1
    70   29   75 1
    71   29   76 1
    72   29   77 1
    73   30   35 ar
    74   30   31 ar
    75   31   32 ar
    76   31   78 1
    77   32   33 ar
    78   32   79 1
    79   33   34 ar
    80   33   80 1
    81   34   35 ar
    82   34   37 1
    83   35   36 1
    84   38   81 1
@<TRIPOS>MOLECULE
CHEMBL293176
   90    92     0     0     0
SMALL
USER_CHARGES

@<TRIPOS>ATOM
      1 C1         -0.0745    1.3095   -0.1143 C.3       1 <0>        -0.1618
      2 C2          0.2086   -0.1758    0.1194 C.3       1 <0>         0.1256
      3 C3          0.8363   -0.3600    1.4770 C.2       1 <0>         0.5154
      4 O1          1.9404   -0.8527    1.5729 O.2       1 <0>        -0.5227
      5 N1          0.1707    0.0227    2.5847 N.am      1 <0>        -0.7215
      6 C4          0.7312   -0.2562    3.9092 C.3       1 <0>         0.1128
      7 H1          1.3026   -1.1837    3.8739 H         1 <0>         0.1053
      8 C5          1.6505    0.8935    4.3263 C.3       1 <0>        -0.1192
      9 C6          2.3422    0.5408    5.6447 C.3       1 <0>        -0.0835
     10 C7          3.2741   -0.6531    5.4282 C.3       1 <0>        -0.1157
     11 C8          3.9658   -1.0058    6.7466 C.3       1 <0>        -0.1202
     12 C9          4.7798    0.1950    7.2326 C.3       1 <0>        -0.1203
     13 C10         3.8479    1.3890    7.4491 C.3       1 <0>        -0.1197
     14 C11         3.1563    1.7417    6.1307 C.3       1 <0>        -0.1115
     15 C12        -0.4046   -0.3951    4.9247 C.3       1 <0>         0.1039
     16 H2          0.0124   -0.6026    5.9102 H         1 <0>         0.1158
     17 C13        -1.3239   -1.5448    4.5076 C.3       1 <0>        -0.1195
     18 C14        -2.3784   -1.7739    5.5923 C.3       1 <0>        -0.0077
     19 C15        -3.8498   -1.7428    5.1740 C.3       1 <0>        -0.0087
     20 O2         -3.2441   -0.6851    5.9199 O.3       1 <0>        -0.3122
     21 C16        -1.9822   -2.7142    6.7012 C.2       1 <0>         0.5385
     22 O3         -1.1344   -3.5591    6.5059 O.2       1 <0>        -0.5185
     23 N2         -2.5700   -2.6162    7.9101 N.am      1 <0>        -0.7259
     24 C17        -2.1849   -3.5303    8.9882 C.3       1 <0>         0.0847
     25 O4         -1.1537    0.8210    4.9710 O.3       1 <0>        -0.5364
     26 N3          1.1250   -0.6665   -0.9129 N.am      1 <0>        -0.7067
     27 C18         0.6423   -1.0782   -2.1020 C.2       1 <0>         0.5196
     28 O5         -0.5506   -1.0424   -2.3175 O.2       1 <0>        -0.5273
     29 C19         1.5850   -1.5830   -3.1639 C.3       1 <0>         0.1568
     30 C20         2.5786   -0.4788   -3.5306 C.3       1 <0>        -0.0911
     31 C21         3.5962   -1.0208   -4.5010 C.ar      1 <0>        -0.0681
     32 C22         4.7599   -1.5999   -4.0306 C.ar      1 <0>        -0.1029
     33 C23         5.6934   -2.0970   -4.9208 C.ar      1 <0>        -0.1110
     34 C24         5.4630   -2.0154   -6.2814 C.ar      1 <0>        -0.1192
     35 C25         4.2989   -1.4370   -6.7517 C.ar      1 <0>        -0.1098
     36 C26         3.3634   -0.9438   -5.8615 C.ar      1 <0>        -0.1078
     37 N4          0.8205   -1.9666   -4.3533 N.am      1 <0>        -0.6977
     38 C27         1.3200   -2.8791   -5.2102 C.2       1 <0>         0.6544
     39 O6          2.4046   -3.3836   -4.9963 O.2       1 <0>        -0.5459
     40 O7          0.6174   -3.2316   -6.3032 O.3       1 <0>        -0.3578
     41 C28         1.2075   -4.2044   -7.1679 C.3       1 <0>         0.1377
     42 C29         1.4395   -5.5025   -6.3920 C.3       1 <0>        -0.1856
     43 C30         0.2697   -4.4751   -8.3461 C.3       1 <0>        -0.1415
     44 C31         2.5449   -3.6770   -7.6914 C.3       1 <0>        -0.1921
     45 H3          0.8596    1.8693   -0.0668 H         1 <0>         0.0677
     46 H4         -0.5285    1.4428   -1.0962 H         1 <0>         0.0778
     47 H5         -0.7563    1.6746    0.6538 H         1 <0>         0.0727
     48 H6         -0.7254   -0.7356    0.0719 H         1 <0>         0.1179
     49 H7         -0.6795    0.4829    2.5049 H         1 <0>         0.3970
     50 H8          2.4022    1.0563    3.5539 H         1 <0>         0.0698
     51 H9          1.0611    1.8011    4.4567 H         1 <0>         0.0740
     52 H10         1.5911    0.2847    6.3919 H         1 <0>         0.0709
     53 H11         2.6942   -1.5086    5.0820 H         1 <0>         0.0613
     54 H12         4.0252   -0.3970    4.6811 H         1 <0>         0.0638
     55 H13         3.2146   -1.2619    7.4938 H         1 <0>         0.0597
     56 H14         4.6297   -1.8564    6.5924 H         1 <0>         0.0611
     57 H15         5.2726   -0.0562    8.1719 H         1 <0>         0.0596
     58 H16         5.5310    0.4512    6.4855 H         1 <0>         0.0608
     59 H17         3.0968    1.1328    8.1963 H         1 <0>         0.0603
     60 H18         4.4279    2.2445    7.7953 H         1 <0>         0.0606
     61 H19         3.9074    1.9978    5.3835 H         1 <0>         0.0610
     62 H20         2.4923    2.5923    6.2849 H         1 <0>         0.0614
     63 H21        -1.8171   -1.2933    3.5687 H         1 <0>         0.0845
     64 H22        -0.7344   -2.4522    4.3766 H         1 <0>         0.1081
     65 H23        -4.0754   -1.5591    4.1235 H         1 <0>         0.1233
     66 H24        -4.5409   -2.4029    5.6982 H         1 <0>         0.1161
     67 H25        -3.2481   -1.9404    8.0663 H         1 <0>         0.4077
     68 H26        -2.7629   -3.3005    9.8833 H         1 <0>         0.0797
     69 H27        -2.3827   -4.5575    8.6816 H         1 <0>         0.0639
     70 H28        -1.1225   -3.4131    9.2017 H         1 <0>         0.0636
     71 H29        -1.5546    1.0683    4.1265 H         1 <0>         0.3653
     72 H30         2.0792   -0.6952   -0.7406 H         1 <0>         0.4138
     73 H31         2.1278   -2.4494   -2.7859 H         1 <0>         0.1228
     74 H32         2.0445    0.3525   -3.9907 H         1 <0>         0.0840
     75 H33         3.0846   -0.1315   -2.6297 H         1 <0>         0.0896
     76 H34         4.9400   -1.6637   -2.9677 H         1 <0>         0.1167
     77 H35         6.6029   -2.5489   -4.5533 H         1 <0>         0.1174
     78 H36         6.1926   -2.4031   -6.9769 H         1 <0>         0.1161
     79 H37         4.1190   -1.3729   -7.8147 H         1 <0>         0.1150
     80 H38         2.4523   -0.4953   -6.2289 H         1 <0>         0.1100
     81 H39        -0.0453   -1.5639   -4.5240 H         1 <0>         0.4140
     82 H40         0.4867   -5.8782   -6.0191 H         1 <0>         0.0575
     83 H41         1.8896   -6.2445   -7.0516 H         1 <0>         0.0684
     84 H42         2.1076   -5.3096   -5.5526 H         1 <0>         0.0884
     85 H43         0.1043   -3.5503   -8.8988 H         1 <0>         0.0658
     86 H44         0.7197   -5.2171   -9.0056 H         1 <0>         0.0798
     87 H45        -0.6832   -4.8508   -7.9732 H         1 <0>         0.0656
     88 H46         3.2130   -3.4841   -6.8520 H         1 <0>         0.1022
     89 H47         2.9950   -4.4190   -8.3509 H         1 <0>         0.0653
     90 H48         2.3796   -2.7522   -8.2441 H         1 <0>         0.0570
@<TRIPOS>BOND
     1    1    2 1
     2    1   45 1
     3    1   46 1
     4    1   47 1
     5    2    3 1
     6    2   26 1
     7    2   48 1
     8    3    4 2
     9    3    5 am
    10    5    6 1
    11    5   49 1
    12    6    7 1
    13    6    8 1
    14    6   15 1
    15    8    9 1
    16    8   50 1
    17    8   51 1
    18    9   14 1
    19    9   10 1
    20    9   52 1
    21   10   11 1
    22   10   53 1
    23   10   54 1
    24   11   12 1
    25   11   55 1
    26   11   56 1
    27   12   13 1
    28   12   57 1
    29   12   58 1
    30   13   14 1
    31   13   59 1
    32   13   60 1
    33   14   61 1
    34   14   62 1
    35   15   16 1
    36   15   17 1
    37   15   25 1
    38   17   18 1
    39   17   63 1
    40   17   64 1
    41   18   20 1
    42   18   19 1
    43   18   21 1
    44   19   20 1
    45   19   65 1
    46   19   66 1
    47   21   22 2
    48   21   23 am
    49   23   24 1
    50   23   67 1
    51   24   68 1
    52   24   69 1
    53   24   70 1
    54   25   71 1
    55   26   27 am
    56   26   72 1
    57   27   28 2
    58   27   29 1
    59   29   30 1
    60   29   37 1
    61   29   73 1
    62   30   31 1
    63   30   74 1
    64   30   75 1
    65   31   36 ar
    66   31   32 ar
    67   32   33 ar
    68   32   76 1
    69   33   34 ar
    70   33   77 1
    71   34   35 ar
    72   34   78 1
    73   35   36 ar
    74   35   79 1
    75   36   80 1
    76   37   38 am
    77   37   81 1
    78   38   39 2
    79   38   40 1
    80   40   41 1
    81   41   42 1
    82   41   43 1
    83   41   44 1
    84   42   82 1
    85   42   83 1
    86   42   84 1
    87   43   85 1
    88   43   86 1
    89   43   87 1
    90   44   88 1
    91   44   89 1
    92   44   90 1
@<TRIPOS>MOLECULE
CHEMBL293176__1
   90    92     0     0     0
SMALL
USER_CHARGES

@<TRIPOS>ATOM
      1 C1         -0.4463    1.8904    0.1797 C.3       1 <0>        -0.1620
      2 C2         -0.1378    0.3922    0.1444 C.3       1 <0>         0.1260
      3 C3          0.6323    0.0087    1.3818 C.2       1 <0>         0.5128
      4 O1          1.7409   -0.4728    1.2812 O.2       1 <0>        -0.5102
      5 N1          0.0890    0.2006    2.6001 N.am      1 <0>        -0.7194
      6 C4          0.8375   -0.1722    3.8030 C.3       1 <0>         0.1142
      7 H1          1.4272   -1.0665    3.6013 H         1 <0>         0.1055
      8 C5          1.7696    0.9745    4.1995 C.3       1 <0>        -0.1208
      9 C6          2.8259    1.1729    3.1107 C.3       1 <0>        -0.0806
     10 C7          3.7192   -0.0669    3.0347 C.3       1 <0>        -0.1071
     11 C8          4.7756    0.1315    1.9458 C.3       1 <0>        -0.1101
     12 C9          5.6298    1.3558    2.2810 C.3       1 <0>        -0.1215
     13 C10         4.7365    2.5956    2.3570 C.3       1 <0>        -0.1163
     14 C11         3.6802    2.3972    3.4459 C.3       1 <0>        -0.1156
     15 C12        -0.1404   -0.4531    4.9457 C.3       1 <0>         0.1047
     16 H2          0.4166   -0.7305    5.8406 H         1 <0>         0.1128
     17 C13        -1.0724   -1.5998    4.5491 C.3       1 <0>        -0.1176
     18 C14        -1.9601   -1.9702    5.7389 C.3       1 <0>        -0.0071
     19 C15        -3.4707   -2.0407    5.5067 C.3       1 <0>        -0.0086
     20 O2         -2.8576   -0.9753    6.2354 O.3       1 <0>        -0.3138
     21 C16        -1.3557   -2.9291    6.7321 C.2       1 <0>         0.5386
     22 O3         -0.4896   -3.7014    6.3795 O.2       1 <0>        -0.5193
     23 N2         -1.7776   -2.9283    8.0121 N.am      1 <0>        -0.7258
     24 C17        -1.1901   -3.8605    8.9776 C.3       1 <0>         0.0846
     25 O4         -0.9134    0.7194    5.2100 O.3       1 <0>        -0.5385
     26 N3          0.6631    0.0864   -1.0436 N.am      1 <0>        -0.7055
     27 C18         0.0560   -0.1423   -2.2249 C.2       1 <0>         0.5192
     28 O5         -1.1532   -0.0948   -2.3046 O.2       1 <0>        -0.5276
     29 C19         0.8799   -0.4569   -3.4470 C.3       1 <0>         0.1575
     30 C20         1.6959   -1.7271   -3.1988 C.3       1 <0>        -0.0916
     31 C21         2.6105   -1.9736   -4.3709 C.ar      1 <0>        -0.0668
     32 C22         2.1743   -2.7337   -5.4400 C.ar      1 <0>        -0.1081
     33 C23         3.0133   -2.9599   -6.5151 C.ar      1 <0>        -0.1095
     34 C24         4.2882   -2.4256   -6.5214 C.ar      1 <0>        -0.1196
     35 C25         4.7240   -1.6647   -5.4527 C.ar      1 <0>        -0.1113
     36 C26         3.8835   -1.4350   -4.3795 C.ar      1 <0>        -0.1027
     37 N4         -0.0075   -0.6629   -4.5943 N.am      1 <0>        -0.6978
     38 C27         0.4501   -0.4584   -5.8454 C.2       1 <0>         0.6546
     39 O6          1.5987   -0.1030   -6.0217 O.2       1 <0>        -0.5464
     40 O7         -0.3654   -0.6477   -6.8998 O.3       1 <0>        -0.3578
     41 C28         0.1861   -0.4124   -8.1970 C.3       1 <0>         0.1377
     42 C29         1.3749   -1.3487   -8.4233 C.3       1 <0>        -0.1924
     43 C30        -0.8813   -0.6772   -9.2607 C.3       1 <0>        -0.1416
     44 C31         0.6553    1.0405   -8.2958 C.3       1 <0>        -0.1854
     45 H3          0.4868    2.4527    0.2159 H         1 <0>         0.0667
     46 H4         -1.0032    2.1678   -0.7153 H         1 <0>         0.0761
     47 H5         -1.0421    2.1180    1.0636 H         1 <0>         0.0724
     48 H6         -1.0708   -0.1701    0.1083 H         1 <0>         0.1160
     49 H7         -0.7977    0.5857    2.6806 H         1 <0>         0.3960
     50 H8          1.1901    1.8904    4.3148 H         1 <0>         0.0712
     51 H9          2.2606    0.7341    5.1426 H         1 <0>         0.0714
     52 H10         2.3336    1.3254    2.1503 H         1 <0>         0.0745
     53 H11         4.2116   -0.2194    3.9951 H         1 <0>         0.0465
     54 H12         3.1106   -0.9391    2.7959 H         1 <0>         0.0780
     55 H13         5.4119   -0.7518    1.8917 H         1 <0>         0.0540
     56 H14         4.2832    0.2840    0.9854 H         1 <0>         0.0627
     57 H15         6.1222    1.2033    3.2415 H         1 <0>         0.0575
     58 H16         6.3824    1.4971    1.5053 H         1 <0>         0.0565
     59 H17         5.3451    3.4678    2.5958 H         1 <0>         0.0569
     60 H18         4.2441    2.7481    1.3966 H         1 <0>         0.0575
     61 H19         3.0438    3.2804    3.5000 H         1 <0>         0.0555
     62 H20         4.1726    2.2447    4.4063 H         1 <0>         0.0583
     63 H21        -1.6976   -1.2871    3.7128 H         1 <0>         0.0846
     64 H22        -0.4788   -2.4654    4.2552 H         1 <0>         0.1086
     65 H23        -3.8413   -1.8236    4.5049 H         1 <0>         0.1234
     66 H24        -4.0372   -2.7817    6.0708 H         1 <0>         0.1161
     67 H25        -2.4703   -2.3106    8.2941 H         1 <0>         0.4079
     68 H26        -1.6538   -3.7135    9.9530 H         1 <0>         0.0797
     69 H27        -1.3610   -4.8842    8.6446 H         1 <0>         0.0640
     70 H28        -0.1183   -3.6773    9.0535 H         1 <0>         0.0637
     71 H29        -1.4360    1.0243    4.4557 H         1 <0>         0.3665
     72 H30         1.6303    0.0484   -0.9799 H         1 <0>         0.4136
     73 H31         1.5546    0.3738   -3.6540 H         1 <0>         0.1216
     74 H32         2.2904   -1.6058   -2.2933 H         1 <0>         0.0919
     75 H33         1.0212   -2.5749   -3.0797 H         1 <0>         0.0831
     76 H34         1.1783   -3.1512   -5.4350 H         1 <0>         0.1097
     77 H35         2.6728   -3.5544   -7.3500 H         1 <0>         0.1149
     78 H36         4.9438   -2.6028   -7.3611 H         1 <0>         0.1159
     79 H37         5.7201   -1.2475   -5.4575 H         1 <0>         0.1170
     80 H38         4.2227   -0.8374   -3.5463 H         1 <0>         0.1162
     81 H39        -0.9243   -0.9466   -4.4536 H         1 <0>         0.4140
     82 H40         1.0406   -2.3838   -8.3529 H         1 <0>         0.0570
     83 H41         1.7955   -1.1692   -9.4127 H         1 <0>         0.0653
     84 H42         2.1353   -1.1601   -7.6655 H         1 <0>         0.1025
     85 H43        -1.7282   -0.0102   -9.0995 H         1 <0>         0.0656
     86 H44        -0.4606   -0.4977  -10.2501 H         1 <0>         0.0797
     87 H45        -1.2155   -1.7123   -9.1903 H         1 <0>         0.0659
     88 H46         1.4157    1.2291   -7.5380 H         1 <0>         0.0883
     89 H47         1.0759    1.2200   -9.2852 H         1 <0>         0.0684
     90 H48        -0.1916    1.7075   -8.1346 H         1 <0>         0.0574
@<TRIPOS>BOND
     1    1    2 1
     2    1   45 1
     3    1   46 1
     4    1   47 1
     5    2    3 1
     6    2   26 1
     7    2   48 1
     8    3    4 2
     9    3    5 am
    10    5    6 1
    11    5   49 1
    12    6    7 1
    13    6    8 1
    14    6   15 1
    15    8    9 1
    16    8   50 1
    17    8   51 1
    18    9   14 1
    19    9   10 1
    20    9   52 1
    21   10   11 1
    22   10   53 1
    23   10   54 1
    24   11   12 1
    25   11   55 1
    26   11   56 1
    27   12   13 1
    28   12   57 1
    29   12   58 1
    30   13   14 1
    31   13   59 1
    32   13   60 1
    33   14   61 1
    34   14   62 1
    35   15   16 1
    36   15   17 1
    37   15   25 1
    38   17   18 1
    39   17   63 1
    40   17   64 1
    41   18   20 1
    42   18   19 1
    43   18   21 1
    44   19   20 1
    45   19   65 1
    46   19   66 1
    47   21   22 2
    48   21   23 am
    49   23   24 1
    50   23   67 1
    51   24   68 1
    52   24   69 1
    53   24   70 1
    54   25   71 1
    55   26   27 am
    56   26   72 1
    57   27   28 2
    58   27   29 1
    59   29   30 1
    60   29   37 1
    61   29   73 1
    62   30   31 1
    63   30   74 1
    64   30   75 1
    65   31   36 ar
    66   31   32 ar
    67   32   33 ar
    68   32   76 1
    69   33   34 ar
    70   33   77 1
    71   34   35 ar
    72   34   78 1
    73   35   36 ar
    74   35   79 1
    75   36   80 1
    76   37   38 am
    77   37   81 1
    78   38   39 2
    79   38   40 1
    80   40   41 1
    81   41   42 1
    82   41   43 1
    83   41   44 1
    84   42   82 1
    85   42   83 1
    86   42   84 1
    87   43   85 1
    88   43   86 1
    89   43   87 1
    90   44   88 1
    91   44   89 1
    92   44   90 1
@<TRIPOS>MOLECULE
CHEMBL293176__2
   90    92     0     0     0
SMALL
USER_CHARGES

@<TRIPOS>ATOM
      1 C1         -0.9643    1.3783   -0.2254 C.3       1 <0>        -0.1614
      2 C2         -0.7578   -0.1373   -0.1931 C.3       1 <0>         0.1251
      3 C3          0.1516   -0.4961    0.9538 C.2       1 <0>         0.5137
      4 O1          1.2032   -1.0612    0.7399 O.2       1 <0>        -0.5132
      5 N1         -0.2036   -0.1889    2.2171 N.am      1 <0>        -0.7191
      6 C4          0.6805   -0.5377    3.3320 C.3       1 <0>         0.1144
      7 H1          1.1793   -1.4829    3.1181 H         1 <0>         0.1038
      8 C5          1.7284    0.5620    3.5151 C.3       1 <0>        -0.1208
      9 C6          2.6331    0.6148    2.2824 C.3       1 <0>        -0.0809
     10 C7          3.4279   -0.6883    2.1769 C.3       1 <0>        -0.1065
     11 C8          4.3326   -0.6355    0.9442 C.3       1 <0>        -0.1102
     12 C9          5.2999    0.5431    1.0716 C.3       1 <0>        -0.1213
     13 C10         4.5051    1.8462    1.1770 C.3       1 <0>        -0.1163
     14 C11         3.6004    1.7934    2.4098 C.3       1 <0>        -0.1156
     15 C12        -0.1443   -0.6747    4.6133 C.3       1 <0>         0.1035
     16 H2          0.5135   -0.9342    5.4428 H         1 <0>         0.1179
     17 C13        -1.1922   -1.7743    4.4301 C.3       1 <0>        -0.1202
     18 C14        -1.9601   -1.9702    5.7389 C.3       1 <0>        -0.0035
     19 C15        -2.0462   -3.3872    6.3097 C.3       1 <0>        -0.0067
     20 O2         -1.2191   -2.3772    6.8911 O.3       1 <0>        -0.3293
     21 C16        -3.1383   -1.0545    5.9492 C.2       1 <0>         0.5499
     22 O3         -3.7116   -0.5749    4.9941 O.2       1 <0>        -0.5238
     23 N2         -3.5550   -0.7685    7.1986 N.am      1 <0>        -0.7250
     24 C17        -4.7004    0.1217    7.4030 C.3       1 <0>         0.0862
     25 O4         -0.7983    0.5646    4.8936 O.3       1 <0>        -0.5457
     26 N3         -0.1509   -0.5744   -1.4528 N.am      1 <0>        -0.7054
     27 C18        -0.9296   -0.8333   -2.5219 C.2       1 <0>         0.5185
     28 O5         -2.1328   -0.7043   -2.4411 O.2       1 <0>        -0.5265
     29 C19        -0.3053   -1.2829   -3.8177 C.3       1 <0>         0.1574
     30 C20         0.6629   -0.2086   -4.3171 C.3       1 <0>        -0.0908
     31 C21         1.3782   -0.7089   -5.5456 C.ar      1 <0>        -0.0674
     32 C22         2.5677   -1.4017   -5.4188 C.ar      1 <0>        -0.1026
     33 C23         3.2238   -1.8606   -6.5456 C.ar      1 <0>        -0.1111
     34 C24         2.6901   -1.6272   -7.7993 C.ar      1 <0>        -0.1194
     35 C25         1.5001   -0.9352   -7.9260 C.ar      1 <0>        -0.1096
     36 C26         0.8419   -0.4800   -6.7989 C.ar      1 <0>        -0.1079
     37 N4         -1.3549   -1.4969   -4.8171 N.am      1 <0>        -0.6976
     38 C27        -1.1457   -2.3457   -5.8429 C.2       1 <0>         0.6545
     39 O6         -0.0865   -2.9334   -5.9388 O.2       1 <0>        -0.5463
     40 O7         -2.1103   -2.5424   -6.7613 O.3       1 <0>        -0.3577
     41 C28        -1.8202   -3.4557   -7.8214 C.3       1 <0>         0.1377
     42 C29        -1.5214   -4.8376   -7.2367 C.3       1 <0>        -0.1855
     43 C30        -3.0258   -3.5484   -8.7589 C.3       1 <0>        -0.1416
     44 C31        -0.6028   -2.9588   -8.6038 C.3       1 <0>        -0.1920
     45 H3         -0.0020    1.8734   -0.3561 H         1 <0>         0.0665
     46 H4         -1.6221    1.6378   -1.0549 H         1 <0>         0.0765
     47 H5         -1.4158    1.7035    0.7119 H         1 <0>         0.0730
     48 H6         -1.7200   -0.6324   -0.0624 H         1 <0>         0.1167
     49 H7         -1.0446    0.2631    2.3881 H         1 <0>         0.3985
     50 H8          1.2289    1.5226    3.6406 H         1 <0>         0.0713
     51 H9          2.3300    0.3471    4.3983 H         1 <0>         0.0718
     52 H10         2.0222    0.7411    1.3885 H         1 <0>         0.0750
     53 H11         4.0388   -0.8146    3.0708 H         1 <0>         0.0463
     54 H12         2.7388   -1.5279    2.0862 H         1 <0>         0.0773
     55 H13         4.8989   -1.5638    0.8691 H         1 <0>         0.0536
     56 H14         3.7218   -0.5091    0.0503 H         1 <0>         0.0629
     57 H15         5.9108    0.4168    1.9654 H         1 <0>         0.0573
     58 H16         5.9445    0.5807    0.1933 H         1 <0>         0.0566
     59 H17         5.1942    2.6858    1.2678 H         1 <0>         0.0569
     60 H18         3.8942    1.9725    0.2832 H         1 <0>         0.0577
     61 H19         3.0341    2.7217    2.4849 H         1 <0>         0.0557
     62 H20         4.2113    1.6670    3.3036 H         1 <0>         0.0582
     63 H21        -1.8868   -1.4865    3.6410 H         1 <0>         0.1015
     64 H22        -0.6972   -2.7060    4.1564 H         1 <0>         0.0931
     65 H23        -2.9562   -3.6663    6.8408 H         1 <0>         0.1177
     66 H24        -1.5564   -4.1883    5.7562 H         1 <0>         0.1254
     67 H25        -3.0965   -1.1521    7.9625 H         1 <0>         0.4066
     68 H26        -4.8875    0.2337    8.4710 H         1 <0>         0.0783
     69 H27        -4.4845    1.0974    6.9676 H         1 <0>         0.0641
     70 H28        -5.5814   -0.3037    6.9225 H         1 <0>         0.0629
     71 H29        -1.4008    0.8579    4.1964 H         1 <0>         0.3713
     72 H30         0.8115   -0.6776   -1.5174 H         1 <0>         0.4130
     73 H31         0.2374   -2.2142   -3.6556 H         1 <0>         0.1221
     74 H32         0.1066    0.6957   -4.5636 H         1 <0>         0.0836
     75 H33         1.3918    0.0142   -3.5378 H         1 <0>         0.0893
     76 H34         2.9846   -1.5840   -4.4393 H         1 <0>         0.1163
     77 H35         4.1535   -2.4012   -6.4466 H         1 <0>         0.1171
     78 H36         3.2031   -1.9851   -8.6797 H         1 <0>         0.1159
     79 H37         1.0834   -0.7526   -8.9055 H         1 <0>         0.1149
     80 H38        -0.0897    0.0573   -6.8977 H         1 <0>         0.1099
     81 H39        -2.2004   -1.0278   -4.7405 H         1 <0>         0.4141
     82 H40        -2.3887   -5.1915   -6.6793 H         1 <0>         0.0574
     83 H41        -1.3001   -5.5342   -8.0453 H         1 <0>         0.0683
     84 H42        -0.6625   -4.7715   -6.5688 H         1 <0>         0.0883
     85 H43        -3.2387   -2.5639   -9.1755 H         1 <0>         0.0658
     86 H44        -2.8045   -4.2450   -9.5675 H         1 <0>         0.0797
     87 H45        -3.8931   -3.9023   -8.2015 H         1 <0>         0.0657
     88 H46         0.2560   -2.8928   -7.9359 H         1 <0>         0.1022
     89 H47        -0.3816   -3.6554   -9.4124 H         1 <0>         0.0651
     90 H48        -0.8157   -1.9743   -9.0204 H         1 <0>         0.0569
@<TRIPOS>BOND
     1    1    2 1
     2    1   45 1
     3    1   46 1
     4    1   47 1
     5    2    3 1
     6    2   26 1
     7    2   48 1
     8    3    4 2
     9    3    5 am
    10    5    6 1
    11    5   49 1
    12    6    7 1
    13    6    8 1
    14    6   15 1
    15    8    9 1
    16    8   50 1
    17    8   51 1
    18    9   14 1
    19    9   10 1
    20    9   52 1
    21   10   11 1
    22   10   53 1
    23   10   54 1
    24   11   12 1
    25   11   55 1
    26   11   56 1
    27   12   13 1
    28   12   57 1
    29   12   58 1
    30   13   14 1
    31   13   59 1
    32   13   60 1
    33   14   61 1
    34   14   62 1
    35   15   16 1
    36   15   17 1
    37   15   25 1
    38   17   18 1
    39   17   63 1
    40   17   64 1
    41   18   20 1
    42   18   19 1
    43   18   21 1
    44   19   20 1
    45   19   65 1
    46   19   66 1
    47   21   22 2
    48   21   23 am
    49   23   24 1
    50   23   67 1
    51   24   68 1
    52   24   69 1
    53   24   70 1
    54   25   71 1
    55   26   27 am
    56   26   72 1
    57   27   28 2
    58   27   29 1
    59   29   30 1
    60   29   37 1
    61   29   73 1
    62   30   31 1
    63   30   74 1
    64   30   75 1
    65   31   36 ar
    66   31   32 ar
    67   32   33 ar
    68   32   76 1
    69   33   34 ar
    70   33   77 1
    71   34   35 ar
    72   34   78 1
    73   35   36 ar
    74   35   79 1
    75   36   80 1
    76   37   38 am
    77   37   81 1
    78   38   39 2
    79   38   40 1
    80   40   41 1
    81   41   42 1
    82   41   43 1
    83   41   44 1
    84   42   82 1
    85   42   83 1
    86   42   84 1
    87   43   85 1
    88   43   86 1
    89   43   87 1
    90   44   88 1
    91   44   89 1
    92   44   90 1
@<TRIPOS>MOLECULE
CHEMBL293176__3
   90    92     0     0     0
SMALL
USER_CHARGES

@<TRIPOS>ATOM
      1 C1         -0.9643    1.3783   -0.2254 C.3       1 <0>        -0.1621
      2 C2         -0.7578   -0.1373   -0.1931 C.3       1 <0>         0.1255
      3 C3          0.1516   -0.4961    0.9538 C.2       1 <0>         0.5141
      4 O1          1.2032   -1.0612    0.7399 O.2       1 <0>        -0.5132
      5 N1         -0.2036   -0.1889    2.2171 N.am      1 <0>        -0.7190
      6 C4          0.6805   -0.5377    3.3320 C.3       1 <0>         0.1146
      7 H1          1.1793   -1.4829    3.1181 H         1 <0>         0.1039
      8 C5          1.7284    0.5620    3.5151 C.3       1 <0>        -0.1209
      9 C6          2.6331    0.6148    2.2824 C.3       1 <0>        -0.0810
     10 C7          3.4279   -0.6883    2.1769 C.3       1 <0>        -0.1061
     11 C8          4.3326   -0.6355    0.9442 C.3       1 <0>        -0.1102
     12 C9          5.2999    0.5431    1.0716 C.3       1 <0>        -0.1213
     13 C10         4.5051    1.8462    1.1770 C.3       1 <0>        -0.1165
     14 C11         3.6004    1.7934    2.4098 C.3       1 <0>        -0.1156
     15 C12        -0.1443   -0.6747    4.6133 C.3       1 <0>         0.1034
     16 H2          0.5135   -0.9342    5.4428 H         1 <0>         0.1179
     17 C13        -1.1922   -1.7743    4.4301 C.3       1 <0>        -0.1200
     18 C14        -1.9601   -1.9702    5.7389 C.3       1 <0>        -0.0035
     19 C15        -2.0462   -3.3872    6.3097 C.3       1 <0>        -0.0067
     20 O2         -1.2191   -2.3772    6.8911 O.3       1 <0>        -0.3293
     21 C16        -3.1383   -1.0545    5.9492 C.2       1 <0>         0.5499
     22 O3         -3.7116   -0.5749    4.9941 O.2       1 <0>        -0.5238
     23 N2         -3.5550   -0.7685    7.1986 N.am      1 <0>        -0.7250
     24 C17        -4.7004    0.1217    7.4030 C.3       1 <0>         0.0861
     25 O4         -0.7983    0.5646    4.8936 O.3       1 <0>        -0.5457
     26 N3         -0.1509   -0.5744   -1.4528 N.am      1 <0>        -0.7054
     27 C18        -0.9296   -0.8333   -2.5219 C.2       1 <0>         0.5183
     28 O5         -2.1328   -0.7043   -2.4411 O.2       1 <0>        -0.5265
     29 C19        -0.3053   -1.2829   -3.8177 C.3       1 <0>         0.1576
     30 C20         0.4565   -2.5901   -3.5902 C.3       1 <0>        -0.0914
     31 C21         1.1817   -2.9754   -4.8538 C.ar      1 <0>        -0.0666
     32 C22         0.5544   -3.7683   -5.7964 C.ar      1 <0>        -0.1081
     33 C23         1.2196   -4.1217   -6.9555 C.ar      1 <0>        -0.1094
     34 C24         2.5120   -3.6817   -7.1722 C.ar      1 <0>        -0.1197
     35 C25         3.1390   -2.8880   -6.2300 C.ar      1 <0>        -0.1114
     36 C26         2.4723   -2.5311   -5.0729 C.ar      1 <0>        -0.1028
     37 N4         -1.3549   -1.4969   -4.8171 N.am      1 <0>        -0.6977
     38 C27        -1.0642   -1.4053   -6.1299 C.2       1 <0>         0.6546
     39 O6          0.0685   -1.1452   -6.4846 O.2       1 <0>        -0.5466
     40 O7         -2.0288   -1.6020   -7.0483 O.3       1 <0>        -0.3578
     41 C28        -1.6498   -1.4895   -8.4216 C.3       1 <0>         0.1378
     42 C29        -0.5649   -2.5211   -8.7374 C.3       1 <0>        -0.1923
     43 C30        -2.8694   -1.7438   -9.3097 C.3       1 <0>        -0.1416
     44 C31        -1.1092   -0.0832   -8.6878 C.3       1 <0>        -0.1854
     45 H3         -0.0020    1.8734   -0.3561 H         1 <0>         0.0662
     46 H4         -1.6221    1.6378   -1.0549 H         1 <0>         0.0762
     47 H5         -1.4158    1.7035    0.7119 H         1 <0>         0.0731
     48 H6         -1.7200   -0.6324   -0.0624 H         1 <0>         0.1171
     49 H7         -1.0446    0.2631    2.3881 H         1 <0>         0.3985
     50 H8          1.2289    1.5226    3.6406 H         1 <0>         0.0712
     51 H9          2.3300    0.3471    4.3983 H         1 <0>         0.0718
     52 H10         2.0222    0.7411    1.3885 H         1 <0>         0.0749
     53 H11         4.0388   -0.8146    3.0708 H         1 <0>         0.0462
     54 H12         2.7388   -1.5279    2.0862 H         1 <0>         0.0775
     55 H13         4.8989   -1.5638    0.8691 H         1 <0>         0.0536
     56 H14         3.7218   -0.5091    0.0503 H         1 <0>         0.0629
     57 H15         5.9108    0.4168    1.9654 H         1 <0>         0.0573
     58 H16         5.9445    0.5807    0.1933 H         1 <0>         0.0565
     59 H17         5.1942    2.6858    1.2678 H         1 <0>         0.0569
     60 H18         3.8942    1.9725    0.2832 H         1 <0>         0.0577
     61 H19         3.0341    2.7217    2.4849 H         1 <0>         0.0556
     62 H20         4.2113    1.6670    3.3036 H         1 <0>         0.0582
     63 H21        -1.8868   -1.4865    3.6410 H         1 <0>         0.1015
     64 H22        -0.6972   -2.7060    4.1564 H         1 <0>         0.0931
     65 H23        -2.9562   -3.6663    6.8408 H         1 <0>         0.1176
     66 H24        -1.5564   -4.1883    5.7562 H         1 <0>         0.1254
     67 H25        -3.0965   -1.1521    7.9625 H         1 <0>         0.4066
     68 H26        -4.8875    0.2337    8.4710 H         1 <0>         0.0783
     69 H27        -4.4845    1.0974    6.9676 H         1 <0>         0.0641
     70 H28        -5.5814   -0.3037    6.9225 H         1 <0>         0.0630
     71 H29        -1.4008    0.8579    4.1964 H         1 <0>         0.3713
     72 H30         0.8115   -0.6776   -1.5174 H         1 <0>         0.4130
     73 H31         0.3845   -0.5176   -4.1735 H         1 <0>         0.1215
     74 H32         1.1777   -2.4548   -2.7842 H         1 <0>         0.0917
     75 H33        -0.2466   -3.3781   -3.3201 H         1 <0>         0.0830
     76 H34        -0.4554   -4.1121   -5.6271 H         1 <0>         0.1097
     77 H35         0.7297   -4.7419   -7.6916 H         1 <0>         0.1148
     78 H36         3.0320   -3.9584   -8.0774 H         1 <0>         0.1158
     79 H37         4.1489   -2.5445   -6.3992 H         1 <0>         0.1169
     80 H38         2.9608   -1.9079   -4.3385 H         1 <0>         0.1161
     81 H39        -2.2591   -1.7046   -4.5339 H         1 <0>         0.4141
     82 H40        -0.9500   -3.5230   -8.5477 H         1 <0>         0.0569
     83 H41        -0.2758   -2.4353   -9.7848 H         1 <0>         0.0652
     84 H42         0.3040   -2.3400   -8.1046 H         1 <0>         0.1024
     85 H43        -3.6422   -1.0088   -9.0847 H         1 <0>         0.0657
     86 H44        -2.5802   -1.6579  -10.3572 H         1 <0>         0.0797
     87 H45        -3.2544   -2.7457   -9.1200 H         1 <0>         0.0658
     88 H46        -0.2404    0.0980   -8.0551 H         1 <0>         0.0883
     89 H47        -0.8201    0.0027   -9.7353 H         1 <0>         0.0683
     90 H48        -1.8821    0.6518   -8.4628 H         1 <0>         0.0574
@<TRIPOS>BOND
     1    1    2 1
     2    1   45 1
     3    1   46 1
     4    1   47 1
     5    2    3 1
     6    2   26 1
     7    2   48 1
     8    3    4 2
     9    3    5 am
    10    5    6 1
    11    5   49 1
    12    6    7 1
    13    6    8 1
    14    6   15 1
    15    8    9 1
    16    8   50 1
    17    8   51 1
    18    9   14 1
    19    9   10 1
    20    9   52 1
    21   10   11 1
    22   10   53 1
    23   10   54 1
    24   11   12 1
    25   11   55 1
    26   11   56 1
    27   12   13 1
    28   12   57 1
    29   12   58 1
    30   13   14 1
    31   13   59 1
    32   13   60 1
    33   14   61 1
    34   14   62 1
    35   15   16 1
    36   15   17 1
    37   15   25 1
    38   17   18 1
    39   17   63 1
    40   17   64 1
    41   18   20 1
    42   18   19 1
    43   18   21 1
    44   19   20 1
    45   19   65 1
    46   19   66 1
    47   21   22 2
    48   21   23 am
    49   23   24 1
    50   23   67 1
    51   24   68 1
    52   24   69 1
    53   24   70 1
    54   25   71 1
    55   26   27 am
    56   26   72 1
    57   27   28 2
    58   27   29 1
    59   29   30 1
    60   29   37 1
    61   29   73 1
    62   30   31 1
    63   30   74 1
    64   30   75 1
    65   31   36 ar
    66   31   32 ar
    67   32   33 ar
    68   32   76 1
    69   33   34 ar
    70   33   77 1
    71   34   35 ar
    72   34   78 1
    73   35   36 ar
    74   35   79 1
    75   36   80 1
    76   37   38 am
    77   37   81 1
    78   38   39 2
    79   38   40 1
    80   40   41 1
    81   41   42 1
    82   41   43 1
    83   41   44 1
    84   42   82 1
    85   42   83 1
    86   42   84 1
    87   43   85 1
    88   43   86 1
    89   43   87 1
    90   44   88 1
    91   44   89 1
    92   44   90 1
@<TRIPOS>MOLECULE
CHEMBL293176__4
   90    92     0     0     0
SMALL
USER_CHARGES

@<TRIPOS>ATOM
      1 C1         -0.1526    1.4909   -0.0684 C.3       1 <0>        -0.1618
      2 C2         -0.4205   -0.0141   -0.1329 C.3       1 <0>         0.1257
      3 C3          0.1914   -0.5798   -1.3886 C.2       1 <0>         0.5129
      4 O1          1.0402   -1.4429   -1.3139 O.2       1 <0>        -0.5102
      5 N1         -0.2045   -0.1266   -2.5945 N.am      1 <0>        -0.7194
      6 C4          0.3903   -0.6765   -3.8151 C.3       1 <0>         0.1145
      7 H1          1.4401   -0.9083   -3.6352 H         1 <0>         0.1058
      8 C5         -0.3527   -1.9530   -4.2142 C.3       1 <0>        -0.1214
      9 C6         -0.1394   -3.0236   -3.1422 C.3       1 <0>        -0.0806
     10 C7          1.3394   -3.4132   -3.0976 C.3       1 <0>        -0.1062
     11 C8          1.5527   -4.4838   -2.0256 C.3       1 <0>        -0.1100
     12 C9          0.7105   -5.7163   -2.3609 C.3       1 <0>        -0.1211
     13 C10        -0.7684   -5.3267   -2.4055 C.3       1 <0>        -0.1162
     14 C11        -0.9817   -4.2561   -3.4776 C.3       1 <0>        -0.1155
     15 C12         0.2811    0.3511   -4.9434 C.3       1 <0>         0.1046
     16 H2          0.7237   -0.0581   -5.8516 H         1 <0>         0.1127
     17 C13         1.0242    1.6276   -4.5444 C.3       1 <0>        -0.1172
     18 C14         1.0302    2.6037   -5.7225 C.3       1 <0>        -0.0070
     19 C15         0.5584    4.0360   -5.4641 C.3       1 <0>        -0.0087
     20 O2         -0.2293    3.0904   -6.1904 O.3       1 <0>        -0.3137
     21 C16         2.1240    2.3960   -6.7382 C.2       1 <0>         0.5386
     22 O3          3.1618    1.8605   -6.4108 O.2       1 <0>        -0.5194
     23 N2          1.9489    2.8054   -8.0103 N.am      1 <0>        -0.7258
     24 C17         3.0122    2.6035   -8.9976 C.3       1 <0>         0.0845
     25 O4         -1.0951    0.6550   -5.1793 O.3       1 <0>        -0.5385
     26 N3          0.1736   -0.6664    1.0366 N.am      1 <0>        -0.7055
     27 C18        -0.5113   -0.7251    2.1959 C.2       1 <0>         0.5190
     28 O5         -1.6194   -0.2379    2.2709 O.2       1 <0>        -0.5273
     29 C19         0.0998   -1.3962    3.3989 C.3       1 <0>         0.1575
     30 C20         0.3963   -2.8607    3.0702 C.3       1 <0>        -0.0912
     31 C21         1.1184   -3.4993    4.2286 C.ar      1 <0>        -0.0665
     32 C22         2.4992   -3.4674    4.2846 C.ar      1 <0>        -0.1026
     33 C23         3.1616   -4.0531    5.3472 C.ar      1 <0>        -0.1112
     34 C24         2.4431   -4.6704    6.3540 C.ar      1 <0>        -0.1196
     35 C25         1.0622   -4.7016    6.2984 C.ar      1 <0>        -0.1096
     36 C26         0.3997   -4.1121    5.2380 C.ar      1 <0>        -0.1081
     37 N4         -0.8360   -1.3280    4.5240 N.am      1 <0>        -0.6978
     38 C27        -0.3742   -1.3839    5.7889 C.2       1 <0>         0.6547
     39 O6          0.8183   -1.4909    5.9962 O.2       1 <0>        -0.5464
     40 O7         -1.2342   -1.3213    6.8229 O.3       1 <0>        -0.3579
     41 C28        -0.6753   -1.3863    8.1365 C.3       1 <0>         0.1377
     42 C29         0.2939   -0.2195    8.3367 C.3       1 <0>        -0.1853
     43 C30        -1.7975   -1.3007    9.1730 C.3       1 <0>        -0.1416
     44 C31         0.0760   -2.7083    8.3062 C.3       1 <0>        -0.1922
     45 H3          0.9228    1.6686   -0.0604 H         1 <0>         0.0675
     46 H4         -0.5946    1.9763   -0.9385 H         1 <0>         0.0709
     47 H5         -0.5952    1.9001    0.8398 H         1 <0>         0.0764
     48 H6         -1.4959   -0.1917   -0.1409 H         1 <0>         0.1161
     49 H7         -0.8833    0.5637   -2.6542 H         1 <0>         0.3959
     50 H8         -1.4175   -1.7395   -4.3077 H         1 <0>         0.0710
     51 H9          0.0308   -2.3133   -5.1688 H         1 <0>         0.0716
     52 H10        -0.4411   -2.6307   -2.1712 H         1 <0>         0.0742
     53 H11         1.6411   -3.8062   -4.0685 H         1 <0>         0.0463
     54 H12         1.9395   -2.5352   -2.8587 H         1 <0>         0.0778
     55 H13         2.6063   -4.7614   -1.9938 H         1 <0>         0.0536
     56 H14         1.2511   -4.0909   -1.0546 H         1 <0>         0.0631
     57 H15         1.0121   -6.1092   -3.3319 H         1 <0>         0.0573
     58 H16         0.8624   -6.4790   -1.5972 H         1 <0>         0.0563
     59 H17        -1.3685   -6.2047   -2.6444 H         1 <0>         0.0568
     60 H18        -1.0701   -4.9337   -1.4346 H         1 <0>         0.0573
     61 H19        -2.0353   -3.9785   -3.5093 H         1 <0>         0.0554
     62 H20        -0.6801   -4.6490   -4.4485 H         1 <0>         0.0584
     63 H21         0.5232    2.0886   -3.6931 H         1 <0>         0.0845
     64 H22         2.0503    1.3806   -4.2719 H         1 <0>         0.1087
     65 H23         0.2408    4.2916   -4.4532 H         1 <0>         0.1232
     66 H24         1.0365    4.8376   -6.0270 H         1 <0>         0.1160
     67 H25         1.1189    3.2337   -8.2721 H         1 <0>         0.4079
     68 H26         2.6912    2.9956   -9.9627 H         1 <0>         0.0797
     69 H27         3.9123    3.1263   -8.6743 H         1 <0>         0.0640
     70 H28         3.2243    1.5384   -9.0906 H         1 <0>         0.0638
     71 H29        -1.5536    1.0240   -4.4120 H         1 <0>         0.3666
     72 H30         1.0599   -1.0561    0.9766 H         1 <0>         0.4137
     73 H31         1.0268   -0.8889    3.6661 H         1 <0>         0.1217
     74 H32        -0.5397   -3.3893    2.8896 H         1 <0>         0.0827
     75 H33         1.0213   -2.9137    2.1787 H         1 <0>         0.0917
     76 H34         3.0606   -2.9851    3.4981 H         1 <0>         0.1162
     77 H35         4.2404   -4.0288    5.3906 H         1 <0>         0.1170
     78 H36         2.9606   -5.1287    7.1838 H         1 <0>         0.1158
     79 H37         0.5008   -5.1841    7.0848 H         1 <0>         0.1148
     80 H38        -0.6793   -4.1331    5.1964 H         1 <0>         0.1095
     81 H39        -1.7880   -1.2426    4.3585 H         1 <0>         0.4140
     82 H40        -0.2413    0.7223    8.2158 H         1 <0>         0.0574
     83 H41         0.7202   -0.2691    9.3386 H         1 <0>         0.0684
     84 H42         1.0934   -0.2805    7.5982 H         1 <0>         0.0883
     85 H43        -2.4880   -2.1320    9.0304 H         1 <0>         0.0659
     86 H44        -1.3712   -1.3503   10.1749 H         1 <0>         0.0797
     87 H45        -2.3327   -0.3589    9.0521 H         1 <0>         0.0656
     88 H46         0.8754   -2.7693    7.5677 H         1 <0>         0.1023
     89 H47         0.5023   -2.7579    9.3081 H         1 <0>         0.0653
     90 H48        -0.6146   -3.5395    8.1636 H         1 <0>         0.0570
@<TRIPOS>BOND
     1    1    2 1
     2    1   45 1
     3    1   46 1
     4    1   47 1
     5    2    3 1
     6    2   26 1
     7    2   48 1
     8    3    4 2
     9    3    5 am
    10    5    6 1
    11    5   49 1
    12    6    7 1
    13    6    8 1
    14    6   15 1
    15    8    9 1
    16    8   50 1
    17    8   51 1
    18    9   14 1
    19    9   10 1
    20    9   52 1
    21   10   11 1
    22   10   53 1
    23   10   54 1
    24   11   12 1
    25   11   55 1
    26   11   56 1
    27   12   13 1
    28   12   57 1
    29   12   58 1
    30   13   14 1
    31   13   59 1
    32   13   60 1
    33   14   61 1
    34   14   62 1
    35   15   16 1
    36   15   17 1
    37   15   25 1
    38   17   18 1
    39   17   63 1
    40   17   64 1
    41   18   20 1
    42   18   19 1
    43   18   21 1
    44   19   20 1
    45   19   65 1
    46   19   66 1
    47   21   22 2
    48   21   23 am
    49   23   24 1
    50   23   67 1
    51   24   68 1
    52   24   69 1
    53   24   70 1
    54   25   71 1
    55   26   27 am
    56   26   72 1
    57   27   28 2
    58   27   29 1
    59   29   30 1
    60   29   37 1
    61   29   73 1
    62   30   31 1
    63   30   74 1
    64   30   75 1
    65   31   36 ar
    66   31   32 ar
    67   32   33 ar
    68   32   76 1
    69   33   34 ar
    70   33   77 1
    71   34   35 ar
    72   34   78 1
    73   35   36 ar
    74   35   79 1
    75   36   80 1
    76   37   38 am
    77   37   81 1
    78   38   39 2
    79   38   40 1
    80   40   41 1
    81   41   42 1
    82   41   43 1
    83   41   44 1
    84   42   82 1
    85   42   83 1
    86   42   84 1
    87   43   85 1
    88   43   86 1
    89   43   87 1
    90   44   88 1
    91   44   89 1
    92   44   90 1
@<TRIPOS>MOLECULE
CHEMBL293176__5
   90    92     0     0     0
SMALL
USER_CHARGES

@<TRIPOS>ATOM
      1 C1         -0.1526    1.4909   -0.0684 C.3       1 <0>        -0.1611
      2 C2         -0.4205   -0.0141   -0.1329 C.3       1 <0>         0.1254
      3 C3          0.1914   -0.5798   -1.3886 C.2       1 <0>         0.5125
      4 O1          1.0402   -1.4429   -1.3139 O.2       1 <0>        -0.5101
      5 N1         -0.2045   -0.1266   -2.5945 N.am      1 <0>        -0.7194
      6 C4          0.3903   -0.6765   -3.8151 C.3       1 <0>         0.1145
      7 H1          1.4401   -0.9083   -3.6352 H         1 <0>         0.1058
      8 C5         -0.3527   -1.9530   -4.2142 C.3       1 <0>        -0.1214
      9 C6         -0.1394   -3.0236   -3.1422 C.3       1 <0>        -0.0809
     10 C7          1.3394   -3.4132   -3.0976 C.3       1 <0>        -0.1060
     11 C8          1.5527   -4.4838   -2.0256 C.3       1 <0>        -0.1105
     12 C9          0.7105   -5.7163   -2.3609 C.3       1 <0>        -0.1211
     13 C10        -0.7684   -5.3267   -2.4055 C.3       1 <0>        -0.1167
     14 C11        -0.9817   -4.2561   -3.4776 C.3       1 <0>        -0.1154
     15 C12         0.2811    0.3511   -4.9434 C.3       1 <0>         0.1046
     16 H2          0.7237   -0.0581   -5.8516 H         1 <0>         0.1127
     17 C13         1.0242    1.6276   -4.5444 C.3       1 <0>        -0.1171
     18 C14         1.0302    2.6037   -5.7225 C.3       1 <0>        -0.0069
     19 C15         0.5584    4.0360   -5.4641 C.3       1 <0>        -0.0087
     20 O2         -0.2293    3.0904   -6.1904 O.3       1 <0>        -0.3137
     21 C16         2.1240    2.3960   -6.7382 C.2       1 <0>         0.5385
     22 O3          3.1618    1.8605   -6.4108 O.2       1 <0>        -0.5194
     23 N2          1.9489    2.8054   -8.0103 N.am      1 <0>        -0.7258
     24 C17         3.0122    2.6035   -8.9976 C.3       1 <0>         0.0845
     25 O4         -1.0951    0.6550   -5.1793 O.3       1 <0>        -0.5385
     26 N3          0.1736   -0.6664    1.0366 N.am      1 <0>        -0.7054
     27 C18        -0.5113   -0.7251    2.1959 C.2       1 <0>         0.5192
     28 O5         -1.6194   -0.2379    2.2709 O.2       1 <0>        -0.5273
     29 C19         0.0998   -1.3962    3.3989 C.3       1 <0>         0.1572
     30 C20         1.4010   -0.6841    3.7740 C.3       1 <0>        -0.0907
     31 C21         2.0746   -1.4279    4.8984 C.ar      1 <0>        -0.0679
     32 C22         1.7847   -1.1062    6.2111 C.ar      1 <0>        -0.1080
     33 C23         2.4025   -1.7884    7.2425 C.ar      1 <0>        -0.1095
     34 C24         3.3098   -2.7926    6.9612 C.ar      1 <0>        -0.1194
     35 C25         3.5990   -3.1149    5.6484 C.ar      1 <0>        -0.1112
     36 C26         2.9780   -2.4356    4.6170 C.ar      1 <0>        -0.1028
     37 N4         -0.8360   -1.3280    4.5240 N.am      1 <0>        -0.6978
     38 C27        -0.7709   -2.2434    5.5110 C.2       1 <0>         0.6545
     39 O6          0.0639   -3.1253    5.4678 O.2       1 <0>        -0.5459
     40 O7         -1.6310   -2.1807    6.5450 O.3       1 <0>        -0.3579
     41 C28        -1.5048   -3.1833    7.5554 C.3       1 <0>         0.1377
     42 C29        -0.1087   -3.1084    8.1768 C.3       1 <0>        -0.1922
     43 C30        -2.5588   -2.9501    8.6397 C.3       1 <0>        -0.1416
     44 C31        -1.7119   -4.5650    6.9316 C.3       1 <0>        -0.1856
     45 H3          0.9228    1.6686   -0.0604 H         1 <0>         0.0677
     46 H4         -0.5946    1.9763   -0.9385 H         1 <0>         0.0708
     47 H5         -0.5952    1.9001    0.8398 H         1 <0>         0.0768
     48 H6         -1.4959   -0.1917   -0.1409 H         1 <0>         0.1156
     49 H7         -0.8833    0.5637   -2.6542 H         1 <0>         0.3959
     50 H8         -1.4175   -1.7395   -4.3077 H         1 <0>         0.0710
     51 H9          0.0308   -2.3133   -5.1688 H         1 <0>         0.0717
     52 H10        -0.4411   -2.6307   -2.1712 H         1 <0>         0.0738
     53 H11         1.6411   -3.8062   -4.0685 H         1 <0>         0.0465
     54 H12         1.9395   -2.5352   -2.8587 H         1 <0>         0.0778
     55 H13         2.6063   -4.7614   -1.9938 H         1 <0>         0.0539
     56 H14         1.2511   -4.0909   -1.0546 H         1 <0>         0.0629
     57 H15         1.0121   -6.1092   -3.3319 H         1 <0>         0.0576
     58 H16         0.8624   -6.4790   -1.5972 H         1 <0>         0.0564
     59 H17        -1.3685   -6.2047   -2.6444 H         1 <0>         0.0570
     60 H18        -1.0701   -4.9337   -1.4346 H         1 <0>         0.0572
     61 H19        -2.0353   -3.9785   -3.5093 H         1 <0>         0.0554
     62 H20        -0.6801   -4.6490   -4.4485 H         1 <0>         0.0586
     63 H21         0.5232    2.0886   -3.6931 H         1 <0>         0.0846
     64 H22         2.0503    1.3806   -4.2719 H         1 <0>         0.1087
     65 H23         0.2408    4.2916   -4.4532 H         1 <0>         0.1232
     66 H24         1.0365    4.8376   -6.0270 H         1 <0>         0.1160
     67 H25         1.1189    3.2337   -8.2721 H         1 <0>         0.4080
     68 H26         2.6912    2.9956   -9.9627 H         1 <0>         0.0797
     69 H27         3.9123    3.1263   -8.6743 H         1 <0>         0.0640
     70 H28         3.2243    1.5384   -9.0906 H         1 <0>         0.0638
     71 H29        -1.5536    1.0240   -4.4120 H         1 <0>         0.3666
     72 H30         1.0599   -1.0561    0.9766 H         1 <0>         0.4137
     73 H31         0.3111   -2.4396    3.1647 H         1 <0>         0.1222
     74 H32         2.0630   -0.6571    2.9084 H         1 <0>         0.0896
     75 H33         1.1790    0.3341    4.0935 H         1 <0>         0.0836
     76 H34         1.0758   -0.3216    6.4310 H         1 <0>         0.1098
     77 H35         2.1766   -1.5366    8.2682 H         1 <0>         0.1150
     78 H36         3.7931   -3.3251    7.7670 H         1 <0>         0.1160
     79 H37         4.3082   -3.8992    5.4286 H         1 <0>         0.1173
     80 H38         3.2012   -2.6899    3.5914 H         1 <0>         0.1166
     81 H39        -1.5024   -0.6240    4.5585 H         1 <0>         0.4140
     82 H40         0.0388   -2.1241    8.6212 H         1 <0>         0.0570
     83 H41        -0.0125   -3.8731    8.9475 H         1 <0>         0.0653
     84 H42         0.6422   -3.2745    7.4044 H         1 <0>         0.1024
     85 H43        -3.5535   -3.0036    8.1970 H         1 <0>         0.0657
     86 H44        -2.4626   -3.7149    9.4104 H         1 <0>         0.0797
     87 H45        -2.4113   -1.9658    9.0841 H         1 <0>         0.0658
     88 H46        -0.9610   -4.7311    6.1592 H         1 <0>         0.0883
     89 H47        -1.6157   -5.3297    7.7024 H         1 <0>         0.0684
     90 H48        -2.7065   -4.6184    6.4889 H         1 <0>         0.0574
@<TRIPOS>BOND
     1    1    2 1
     2    1   45 1
     3    1   46 1
     4    1   47 1
     5    2    3 1
     6    2   26 1
     7    2   48 1
     8    3    4 2
     9    3    5 am
    10    5    6 1
    11    5   49 1
    12    6    7 1
    13    6    8 1
    14    6   15 1
    15    8    9 1
    16    8   50 1
    17    8   51 1
    18    9   14 1
    19    9   10 1
    20    9   52 1
    21   10   11 1
    22   10   53 1
    23   10   54 1
    24   11   12 1
    25   11   55 1
    26   11   56 1
    27   12   13 1
    28   12   57 1
    29   12   58 1
    30   13   14 1
    31   13   59 1
    32   13   60 1
    33   14   61 1
    34   14   62 1
    35   15   16 1
    36   15   17 1
    37   15   25 1
    38   17   18 1
    39   17   63 1
    40   17   64 1
    41   18   20 1
    42   18   19 1
    43   18   21 1
    44   19   20 1
    45   19   65 1
    46   19   66 1
    47   21   22 2
    48   21   23 am
    49   23   24 1
    50   23   67 1
    51   24   68 1
    52   24   69 1
    53   24   70 1
    54   25   71 1
    55   26   27 am
    56   26   72 1
    57   27   28 2
    58   27   29 1
    59   29   30 1
    60   29   37 1
    61   29   73 1
    62   30   31 1
    63   30   74 1
    64   30   75 1
    65   31   36 ar
    66   31   32 ar
    67   32   33 ar
    68   32   76 1
    69   33   34 ar
    70   33   77 1
    71   34   35 ar
    72   34   78 1
    73   35   36 ar
    74   35   79 1
    75   36   80 1
    76   37   38 am
    77   37   81 1
    78   38   39 2
    79   38   40 1
    80   40   41 1
    81   41   42 1
    82   41   43 1
    83   41   44 1
    84   42   82 1
    85   42   83 1
    86   42   84 1
    87   43   85 1
    88   43   86 1
    89   43   87 1
    90   44   88 1
    91   44   89 1
    92   44   90 1
@<TRIPOS>MOLECULE
CHEMBL293176__6
   90    92     0     0     0
SMALL
USER_CHARGES

@<TRIPOS>ATOM
      1 C1          0.0184    2.2627    0.0414 C.3       1 <0>        -0.1624
      2 C2         -0.1424    0.7505    0.2091 C.3       1 <0>         0.1255
      3 C3          0.4979    0.0446   -0.9583 C.2       1 <0>         0.5142
      4 O1          1.4064   -0.7366   -0.7704 O.2       1 <0>        -0.5132
      5 N1          0.0610    0.2816   -2.2111 N.am      1 <0>        -0.7191
      6 C4          0.6835   -0.4046   -3.3459 C.3       1 <0>         0.1148
      7 H1          1.7485   -0.5335   -3.1528 H         1 <0>         0.1041
      8 C5          0.0298   -1.7750   -3.5343 C.3       1 <0>        -0.1215
      9 C6          0.3272   -2.6535   -2.3175 C.3       1 <0>        -0.0810
     10 C7          1.8303   -2.9290   -2.2425 C.3       1 <0>        -0.1053
     11 C8          2.1277   -3.8076   -1.0257 C.3       1 <0>        -0.1101
     12 C9          1.3724   -5.1317   -1.1559 C.3       1 <0>        -0.1210
     13 C10        -0.1308   -4.8563   -1.2309 C.3       1 <0>        -0.1164
     14 C11        -0.4282   -3.9777   -2.4477 C.3       1 <0>        -0.1155
     15 C12         0.4925    0.4302   -4.6138 C.3       1 <0>         0.1033
     16 H2          0.9556   -0.0803   -5.4582 H         1 <0>         0.1178
     17 C13         1.1463    1.8006   -4.4254 C.3       1 <0>        -0.1196
     18 C14         1.0302    2.6037   -5.7225 C.3       1 <0>        -0.0035
     19 C15         2.3114    3.1997   -6.3091 C.3       1 <0>        -0.0068
     20 O2          1.6551    2.0725   -6.8927 O.3       1 <0>        -0.3292
     21 C16        -0.2508    3.3773   -5.9002 C.2       1 <0>         0.5499
     22 O3         -0.8869    3.7284   -4.9291 O.2       1 <0>        -0.5241
     23 N2         -0.6897    3.6790   -7.1383 N.am      1 <0>        -0.7250
     24 C17        -1.9350    4.4310   -7.3111 C.3       1 <0>         0.0861
     25 O4         -0.9037    0.5993   -4.8669 O.3       1 <0>        -0.5458
     26 N3          0.5059    0.3253    1.4522 N.am      1 <0>        -0.7053
     27 C18        -0.1637    0.3958    2.6197 C.2       1 <0>         0.5184
     28 O5         -1.3029    0.8112    2.6413 O.2       1 <0>        -0.5266
     29 C19         0.5032   -0.0415    3.8984 C.3       1 <0>         0.1577
     30 C20         0.9003   -1.5150    3.7884 C.3       1 <0>        -0.0911
     31 C21         1.6752   -1.9194    5.0160 C.ar      1 <0>        -0.0662
     32 C22         3.0507   -1.7842    5.0407 C.ar      1 <0>        -0.1027
     33 C23         3.7616   -2.1552    6.1668 C.ar      1 <0>        -0.1113
     34 C24         3.0969   -2.6609    7.2683 C.ar      1 <0>        -0.1197
     35 C25         1.7213   -2.7952    7.2439 C.ar      1 <0>        -0.1095
     36 C26         1.0100   -2.4202    6.1194 C.ar      1 <0>        -0.1080
     37 N4         -0.4259    0.1316    5.0177 N.am      1 <0>        -0.6977
     38 C27         0.0489    0.2999    6.2678 C.2       1 <0>         0.6547
     39 O6          1.2476    0.3081    6.4664 O.2       1 <0>        -0.5466
     40 O7         -0.8050    0.4590    7.2965 O.3       1 <0>        -0.3578
     41 C28        -0.2323    0.6324    8.5942 C.3       1 <0>         0.1378
     42 C29         0.6533    1.8801    8.5983 C.3       1 <0>        -0.1853
     43 C30        -1.3493    0.7964    9.6269 C.3       1 <0>        -0.1416
     44 C31         0.6123   -0.5936    8.9469 C.3       1 <0>        -0.1921
     45 H3          1.0785    2.5132    0.0024 H         1 <0>         0.0664
     46 H4         -0.4639    2.5790   -0.8835 H         1 <0>         0.0742
     47 H5         -0.4447    2.7732    0.8858 H         1 <0>         0.0762
     48 H6         -1.2025    0.5000    0.2481 H         1 <0>         0.1161
     49 H7         -0.6655    0.9064   -2.3613 H         1 <0>         0.3985
     50 H8         -1.0482   -1.6520   -3.6389 H         1 <0>         0.0710
     51 H9          0.4301   -2.2484   -4.4308 H         1 <0>         0.0719
     52 H10         0.0063   -2.1398   -1.4113 H         1 <0>         0.0746
     53 H11         2.1512   -3.4428   -3.1487 H         1 <0>         0.0460
     54 H12         2.3684   -1.9857   -2.1498 H         1 <0>         0.0772
     55 H13         3.1985   -4.0038   -0.9723 H         1 <0>         0.0533
     56 H14         1.8068   -3.2938   -0.1195 H         1 <0>         0.0634
     57 H15         1.6932   -5.6455   -2.0621 H         1 <0>         0.0572
     58 H16         1.5842   -5.7576   -0.2890 H         1 <0>         0.0563
     59 H17        -0.6689   -5.7996   -1.3236 H         1 <0>         0.0568
     60 H18        -0.4517   -4.3425   -0.3247 H         1 <0>         0.0575
     61 H19        -1.4990   -3.7814   -2.5011 H         1 <0>         0.0555
     62 H20        -0.1073   -4.4915   -3.3539 H         1 <0>         0.0583
     63 H21         0.6427    2.3358   -3.6204 H         1 <0>         0.1016
     64 H22         2.1983    1.6696   -4.1721 H         1 <0>         0.0931
     65 H23         2.2360    4.1558   -6.8272 H         1 <0>         0.1175
     66 H24         3.2448    3.0233   -5.7745 H         1 <0>         0.1254
     67 H25        -0.1809    3.3982   -7.9150 H         1 <0>         0.4067
     68 H26        -2.1258    4.5786   -8.3740 H         1 <0>         0.0783
     69 H27        -2.7603    3.8740   -6.8676 H         1 <0>         0.0642
     70 H28        -1.8454    5.4000   -6.8201 H         1 <0>         0.0629
     71 H29        -1.3810    1.0477   -4.1555 H         1 <0>         0.3714
     72 H30         1.4171   -0.0069    1.4349 H         1 <0>         0.4131
     73 H31         1.3940    0.5631    4.0688 H         1 <0>         0.1215
     74 H32         0.0027   -2.1280    3.7070 H         1 <0>         0.0827
     75 H33         1.5202   -1.6591    2.9035 H         1 <0>         0.0916
     76 H34         3.5700   -1.3891    4.1801 H         1 <0>         0.1161
     77 H35         4.8363   -2.0502    6.1858 H         1 <0>         0.1169
     78 H36         3.6523   -2.9514    8.1478 H         1 <0>         0.1158
     79 H37         1.2020   -3.1906    8.1044 H         1 <0>         0.1147
     80 H38        -0.0651   -2.5217    6.1017 H         1 <0>         0.1096
     81 H39        -1.3829    0.1251    4.8592 H         1 <0>         0.4141
     82 H40         0.0516    2.7535    8.3470 H         1 <0>         0.0574
     83 H41         1.0901    2.0123    9.5881 H         1 <0>         0.0683
     84 H42         1.4490    1.7632    7.8626 H         1 <0>         0.0883
     85 H43        -1.9802   -0.0924    9.6240 H         1 <0>         0.0658
     86 H44        -0.9124    0.9287   10.6167 H         1 <0>         0.0797
     87 H45        -1.9510    1.6699    9.3756 H         1 <0>         0.0657
     88 H46         1.4080   -0.7105    8.2112 H         1 <0>         0.1023
     89 H47         1.0492   -0.4614    9.9367 H         1 <0>         0.0651
     90 H48        -0.0186   -1.4825    8.9440 H         1 <0>         0.0569
@<TRIPOS>BOND
     1    1    2 1
     2    1   45 1
     3    1   46 1
     4    1   47 1
     5    2    3 1
     6    2   26 1
     7    2   48 1
     8    3    4 2
     9    3    5 am
    10    5    6 1
    11    5   49 1
    12    6    7 1
    13    6    8 1
    14    6   15 1
    15    8    9 1
    16    8   50 1
    17    8   51 1
    18    9   14 1
    19    9   10 1
    20    9   52 1
    21   10   11 1
    22   10   53 1
    23   10   54 1
    24   11   12 1
    25   11   55 1
    26   11   56 1
    27   12   13 1
    28   12   57 1
    29   12   58 1
    30   13   14 1
    31   13   59 1
    32   13   60 1
    33   14   61 1
    34   14   62 1
    35   15   16 1
    36   15   17 1
    37   15   25 1
    38   17   18 1
    39   17   63 1
    40   17   64 1
    41   18   20 1
    42   18   19 1
    43   18   21 1
    44   19   20 1
    45   19   65 1
    46   19   66 1
    47   21   22 2
    48   21   23 am
    49   23   24 1
    50   23   67 1
    51   24   68 1
    52   24   69 1
    53   24   70 1
    54   25   71 1
    55   26   27 am
    56   26   72 1
    57   27   28 2
    58   27   29 1
    59   29   30 1
    60   29   37 1
    61   29   73 1
    62   30   31 1
    63   30   74 1
    64   30   75 1
    65   31   36 ar
    66   31   32 ar
    67   32   33 ar
    68   32   76 1
    69   33   34 ar
    70   33   77 1
    71   34   35 ar
    72   34   78 1
    73   35   36 ar
    74   35   79 1
    75   36   80 1
    76   37   38 am
    77   37   81 1
    78   38   39 2
    79   38   40 1
    80   40   41 1
    81   41   42 1
    82   41   43 1
    83   41   44 1
    84   42   82 1
    85   42   83 1
    86   42   84 1
    87   43   85 1
    88   43   86 1
    89   43   87 1
    90   44   88 1
    91   44   89 1
    92   44   90 1
@<TRIPOS>MOLECULE
CHEMBL293176__7
   90    92     0     0     0
SMALL
USER_CHARGES

@<TRIPOS>ATOM
      1 C1          0.0184    2.2627    0.0414 C.3       1 <0>        -0.1616
      2 C2         -0.1424    0.7505    0.2091 C.3       1 <0>         0.1252
      3 C3          0.4979    0.0446   -0.9583 C.2       1 <0>         0.5138
      4 O1          1.4064   -0.7366   -0.7704 O.2       1 <0>        -0.5131
      5 N1          0.0610    0.2816   -2.2111 N.am      1 <0>        -0.7192
      6 C4          0.6835   -0.4046   -3.3459 C.3       1 <0>         0.1148
      7 H1          1.7485   -0.5335   -3.1528 H         1 <0>         0.1041
      8 C5          0.0298   -1.7750   -3.5343 C.3       1 <0>        -0.1214
      9 C6          0.3272   -2.6535   -2.3175 C.3       1 <0>        -0.0813
     10 C7          1.8303   -2.9290   -2.2425 C.3       1 <0>        -0.1051
     11 C8          2.1277   -3.8076   -1.0257 C.3       1 <0>        -0.1106
     12 C9          1.3724   -5.1317   -1.1559 C.3       1 <0>        -0.1209
     13 C10        -0.1308   -4.8563   -1.2309 C.3       1 <0>        -0.1169
     14 C11        -0.4282   -3.9777   -2.4477 C.3       1 <0>        -0.1154
     15 C12         0.4925    0.4302   -4.6138 C.3       1 <0>         0.1033
     16 H2          0.9556   -0.0803   -5.4582 H         1 <0>         0.1178
     17 C13         1.1463    1.8006   -4.4254 C.3       1 <0>        -0.1195
     18 C14         1.0302    2.6037   -5.7225 C.3       1 <0>        -0.0035
     19 C15         2.3114    3.1997   -6.3091 C.3       1 <0>        -0.0068
     20 O2          1.6551    2.0725   -6.8927 O.3       1 <0>        -0.3292
     21 C16        -0.2508    3.3773   -5.9002 C.2       1 <0>         0.5499
     22 O3         -0.8869    3.7284   -4.9291 O.2       1 <0>        -0.5241
     23 N2         -0.6897    3.6790   -7.1383 N.am      1 <0>        -0.7250
     24 C17        -1.9350    4.4310   -7.3111 C.3       1 <0>         0.0861
     25 O4         -0.9037    0.5993   -4.8669 O.3       1 <0>        -0.5458
     26 N3          0.5059    0.3253    1.4522 N.am      1 <0>        -0.7053
     27 C18        -0.1637    0.3958    2.6197 C.2       1 <0>         0.5186
     28 O5         -1.3029    0.8112    2.6413 O.2       1 <0>        -0.5267
     29 C19         0.5032   -0.0415    3.8984 C.3       1 <0>         0.1574
     30 C20         1.7536    0.8072    4.1376 C.3       1 <0>        -0.0908
     31 C21         2.4873    0.2906    5.3483 C.ar      1 <0>        -0.0676
     32 C22         2.1860    0.7866    6.6029 C.ar      1 <0>        -0.1078
     33 C23         2.8590    0.3128    7.7135 C.ar      1 <0>        -0.1094
     34 C24         3.8330   -0.6575    7.5695 C.ar      1 <0>        -0.1195
     35 C25         4.1337   -1.1542    6.3150 C.ar      1 <0>        -0.1113
     36 C26         3.4577   -0.6834    5.2050 C.ar      1 <0>        -0.1029
     37 N4         -0.4259    0.1316    5.0177 N.am      1 <0>        -0.6977
     38 C27        -0.2881   -0.6170    6.1300 C.2       1 <0>         0.6545
     39 O6          0.6069   -1.4355    6.2043 O.2       1 <0>        -0.5462
     40 O7         -1.1420   -0.4579    7.1587 O.3       1 <0>        -0.3578
     41 C28        -0.9368   -1.2847    8.3059 C.3       1 <0>         0.1378
     42 C29         0.4555   -1.0204    8.8827 C.3       1 <0>        -0.1921
     43 C30        -1.9959   -0.9632    9.3623 C.3       1 <0>        -0.1416
     44 C31        -1.0503   -2.7559    7.9012 C.3       1 <0>        -0.1855
     45 H3          1.0785    2.5132    0.0024 H         1 <0>         0.0667
     46 H4         -0.4639    2.5790   -0.8835 H         1 <0>         0.0741
     47 H5         -0.4447    2.7732    0.8858 H         1 <0>         0.0765
     48 H6         -1.2025    0.5000    0.2481 H         1 <0>         0.1156
     49 H7         -0.6655    0.9064   -2.3613 H         1 <0>         0.3985
     50 H8         -1.0482   -1.6520   -3.6389 H         1 <0>         0.0710
     51 H9          0.4301   -2.2484   -4.4308 H         1 <0>         0.0721
     52 H10         0.0063   -2.1398   -1.4113 H         1 <0>         0.0742
     53 H11         2.1512   -3.4428   -3.1487 H         1 <0>         0.0462
     54 H12         2.3684   -1.9857   -2.1498 H         1 <0>         0.0772
     55 H13         3.1985   -4.0038   -0.9723 H         1 <0>         0.0535
     56 H14         1.8068   -3.2938   -0.1195 H         1 <0>         0.0632
     57 H15         1.6932   -5.6455   -2.0621 H         1 <0>         0.0575
     58 H16         1.5842   -5.7576   -0.2890 H         1 <0>         0.0564
     59 H17        -0.6689   -5.7996   -1.3236 H         1 <0>         0.0571
     60 H18        -0.4517   -4.3425   -0.3247 H         1 <0>         0.0573
     61 H19        -1.4990   -3.7814   -2.5011 H         1 <0>         0.0555
     62 H20        -0.1073   -4.4915   -3.3539 H         1 <0>         0.0585
     63 H21         0.6427    2.3358   -3.6204 H         1 <0>         0.1017
     64 H22         2.1983    1.6696   -4.1721 H         1 <0>         0.0932
     65 H23         2.2360    4.1558   -6.8272 H         1 <0>         0.1175
     66 H24         3.2448    3.0233   -5.7745 H         1 <0>         0.1254
     67 H25        -0.1809    3.3982   -7.9150 H         1 <0>         0.4067
     68 H26        -2.1258    4.5786   -8.3740 H         1 <0>         0.0783
     69 H27        -2.7603    3.8740   -6.8676 H         1 <0>         0.0642
     70 H28        -1.8454    5.4000   -6.8201 H         1 <0>         0.0630
     71 H29        -1.3810    1.0477   -4.1555 H         1 <0>         0.3714
     72 H30         1.4171   -0.0069    1.4349 H         1 <0>         0.4131
     73 H31         0.7861   -1.0912    3.8200 H         1 <0>         0.1220
     74 H32         2.4049    0.7483    3.2655 H         1 <0>         0.0894
     75 H33         1.4624    1.8442    4.3043 H         1 <0>         0.0837
     76 H34         1.4250    1.5447    6.7154 H         1 <0>         0.1099
     77 H35         2.6240    0.7009    8.6936 H         1 <0>         0.1150
     78 H36         4.3593   -1.0272    8.4371 H         1 <0>         0.1159
     79 H37         4.8950   -1.9120    6.2025 H         1 <0>         0.1171
     80 H38         3.6900   -1.0742    4.2253 H         1 <0>         0.1164
     81 H39        -1.1404    0.7851    4.9584 H         1 <0>         0.4141
     82 H40         0.5363    0.0276    9.1710 H         1 <0>         0.0569
     83 H41         0.6120   -1.6511    9.7578 H         1 <0>         0.0652
     84 H42         1.2100   -1.2495    8.1301 H         1 <0>         0.1024
     85 H43        -2.9878   -1.1515    8.9514 H         1 <0>         0.0657
     86 H44        -1.8394   -1.5939   10.2374 H         1 <0>         0.0797
     87 H45        -1.9150    0.0848    9.6506 H         1 <0>         0.0658
     88 H46        -0.2958   -2.9849    7.1487 H         1 <0>         0.0883
     89 H47        -0.8938   -3.3866    8.7763 H         1 <0>         0.0683
     90 H48        -2.0422   -2.9442    7.4903 H         1 <0>         0.0574
@<TRIPOS>BOND
     1    1    2 1
     2    1   45 1
     3    1   46 1
     4    1   47 1
     5    2    3 1
     6    2   26 1
     7    2   48 1
     8    3    4 2
     9    3    5 am
    10    5    6 1
    11    5   49 1
    12    6    7 1
    13    6    8 1
    14    6   15 1
    15    8    9 1
    16    8   50 1
    17    8   51 1
    18    9   14 1
    19    9   10 1
    20    9   52 1
    21   10   11 1
    22   10   53 1
    23   10   54 1
    24   11   12 1
    25   11   55 1
    26   11   56 1
    27   12   13 1
    28   12   57 1
    29   12   58 1
    30   13   14 1
    31   13   59 1
    32   13   60 1
    33   14   61 1
    34   14   62 1
    35   15   16 1
    36   15   17 1
    37   15   25 1
    38   17   18 1
    39   17   63 1
    40   17   64 1
    41   18   20 1
    42   18   19 1
    43   18   21 1
    44   19   20 1
    45   19   65 1
    46   19   66 1
    47   21   22 2
    48   21   23 am
    49   23   24 1
    50   23   67 1
    51   24   68 1
    52   24   69 1
    53   24   70 1
    54   25   71 1
    55   26   27 am
    56   26   72 1
    57   27   28 2
    58   27   29 1
    59   29   30 1
    60   29   37 1
    61   29   73 1
    62   30   31 1
    63   30   74 1
    64   30   75 1
    65   31   36 ar
    66   31   32 ar
    67   32   33 ar
    68   32   76 1
    69   33   34 ar
    70   33   77 1
    71   34   35 ar
    72   34   78 1
    73   35   36 ar
    74   35   79 1
    75   36   80 1
    76   37   38 am
    77   37   81 1
    78   38   39 2
    79   38   40 1
    80   40   41 1
    81   41   42 1
    82   41   43 1
    83   41   44 1
    84   42   82 1
    85   42   83 1
    86   42   84 1
    87   43   85 1
    88   43   86 1
    89   43   87 1
    90   44   88 1
    91   44   89 1
    92   44   90 1
@<TRIPOS>MOLECULE
CHEMBL442264
   66    71     0     0     0
SMALL
USER_CHARGES

@<TRIPOS>ATOM
      1 C1         -0.0164    1.3567    0.0095 C.ar      1 <0>        -0.1071
      2 C2          1.1686    2.0905    0.0021 C.ar      1 <0>        -0.1106
      3 C3          2.3785    1.4675   -0.0131 C.ar      1 <0>        -0.1076
      4 C4          2.4375    0.0634   -0.0211 C.ar      1 <0>        -0.0569
      5 C5          3.6681   -0.6153   -0.0364 C.ar      1 <0>        -0.0771
      6 C6          3.6865   -1.9761   -0.0434 C.ar      1 <0>        -0.0985
      7 C7          2.5015   -2.7098   -0.0357 C.ar      1 <0>        -0.1005
      8 C8          1.2917   -2.0868   -0.0209 C.ar      1 <0>        -0.0999
      9 C9          1.2327   -0.6827   -0.0133 C.ar      1 <0>        -0.0434
     10 C10         0.0021   -0.0041    0.0020 C.ar      1 <0>        -0.1084
     11 C11         5.0079   -2.7004   -0.0602 C.3       1 <0>         0.1003
     12 O1          5.4390   -2.9361    1.2817 O.3       1 <0>        -0.3429
     13 C12         6.6892   -3.6214    1.3786 C.3       1 <0>         0.0772
     14 H1          6.8135   -4.2757    0.5157 H         1 <0>         0.0860
     15 C13         7.8294   -2.6015    1.4149 C.3       1 <0>        -0.0389
     16 N1          9.1149   -3.3028    1.5168 N.4       1 <0>        -0.4998
     17 C14         9.1770   -4.0478    2.7800 C.3       1 <0>        -0.0099
     18 C15         8.0886   -5.1233    2.7963 C.3       1 <0>        -0.1400
     19 C16         6.7165   -4.4566    2.6619 C.3       1 <0>        -0.0486
     20 H2          6.5404   -3.8099    3.5215 H         1 <0>         0.1050
     21 C17         5.6452   -5.5146    2.5974 C.ar      1 <0>        -0.1209
     22 C18         5.6688   -6.4601    1.5888 C.ar      1 <0>        -0.0775
     23 C19         4.6878   -7.4307    1.5273 C.ar      1 <0>        -0.1399
     24 C20         3.6785   -7.4565    2.4788 C.ar      1 <0>         0.1424
     25 C21         3.6573   -6.5070    3.4900 C.ar      1 <0>        -0.2007
     26 C22         4.6436   -5.5416    3.5502 C.ar      1 <0>        -0.0540
     27 O2          2.7120   -8.4101    2.4201 O.3       1 <0>        -0.3039
     28 C23         1.7044   -8.3757    3.4329 C.3       1 <0>         0.1491
     29 C24         0.7265   -9.4999    3.2070 C.2       1 <0>         0.2906
     30 N2          0.8186  -10.7002    3.7042 N.2       1 <0>        -0.5073
     31 C25        -0.2236  -11.4477    3.2992 C.2       1 <0>         0.3047
     32 N3         -0.9920  -10.7142    2.5324 N.2       1 <0>        -0.3162
     33 O3         -0.3868   -9.4316    2.4657 O.3       1 <0>        -0.0869
     34 C26        -0.4630  -12.8673    3.6604 C.ar      1 <0>        -0.0999
     35 C27        -1.5835  -13.5450    3.1719 C.ar      1 <0>        -0.0304
     36 C28        -1.7618  -14.8679    3.5379 C.ar      1 <0>        -0.1732
     37 C29        -0.8340  -15.4712    4.3677 C.ar      1 <0>         0.1298
     38 N4          0.2137  -14.8054    4.8134 N.ar      1 <0>        -0.4829
     39 C30         0.4283  -13.5472    4.4869 C.ar      1 <0>         0.1595
     40 H3         -0.9633    1.8757    0.0259 H         1 <0>         0.1281
     41 H4          1.1260    3.1696    0.0083 H         1 <0>         0.1274
     42 H5          3.2884    2.0491   -0.0194 H         1 <0>         0.1276
     43 H6          4.5943   -0.0599   -0.0428 H         1 <0>         0.1249
     44 H7          2.5441   -3.7890   -0.0419 H         1 <0>         0.1227
     45 H8          0.3816   -2.6684   -0.0154 H         1 <0>         0.1312
     46 H9         -0.9241   -0.5595    0.0082 H         1 <0>         0.1308
     47 H10         4.8935   -3.6529   -0.5777 H         1 <0>         0.0686
     48 H11         5.7491   -2.0921   -0.5784 H         1 <0>         0.0607
     49 H12         7.8125   -2.0057    0.5023 H         1 <0>         0.1342
     50 H13         7.7036   -1.9471    2.2774 H         1 <0>         0.1414
     51 H14         9.2089   -3.9446    0.7440 H         1 <0>         0.4278
     52 H15        10.1549   -4.5197    2.8753 H         1 <0>         0.1392
     53 H16         9.0225   -3.3626    3.6135 H         1 <0>         0.1345
     54 H17         8.2423   -5.8093    1.9633 H         1 <0>         0.0932
     55 H18         8.1352   -5.6742    3.7357 H         1 <0>         0.1231
     56 H19         6.4547   -6.4396    0.8483 H         1 <0>         0.1242
     57 H20         4.7062   -8.1686    0.7389 H         1 <0>         0.1361
     58 H21         2.8726   -6.5250    4.2319 H         1 <0>         0.1351
     59 H22         4.6301   -4.8048    4.3398 H         1 <0>         0.1294
     60 H23         2.1694   -8.4899    4.4121 H         1 <0>         0.1197
     61 H24         1.1781   -7.4221    3.3895 H         1 <0>         0.1095
     62 H25        -2.2924  -13.0490    2.5255 H         1 <0>         0.1454
     63 H26        -2.6162  -15.4230    3.1798 H         1 <0>         0.1496
     64 H27        -0.9699  -16.5032    4.6554 H         1 <0>         0.1682
     65 H28         1.3006  -13.0369    4.8678 H         1 <0>         0.1710
     66 H29         9.8668   -2.6307    1.4867 H         1 <0>         0.4355
@<TRIPOS>BOND
     1    1   10 ar
     2    1    2 ar
     3    1   40 1
     4    2    3 ar
     5    2   41 1
     6    3    4 ar
     7    3   42 1
     8    4    9 ar
     9    4    5 ar
    10    5    6 ar
    11    5   43 1
    12    6    7 ar
    13    6   11 1
    14    7    8 ar
    15    7   44 1
    16    8    9 ar
    17    8   45 1
    18    9   10 ar
    19   10   46 1
    20   11   12 1
    21   11   47 1
    22   11   48 1
    23   12   13 1
    24   13   14 1
    25   13   19 1
    26   13   15 1
    27   15   16 1
    28   15   49 1
    29   15   50 1
    30   16   17 1
    31   16   51 1
    32   16   66 1
    33   17   18 1
    34   17   52 1
    35   17   53 1
    36   18   19 1
    37   18   54 1
    38   18   55 1
    39   19   20 1
    40   19   21 1
    41   21   26 ar
    42   21   22 ar
    43   22   23 ar
    44   22   56 1
    45   23   24 ar
    46   23   57 1
    47   24   25 ar
    48   24   27 1
    49   25   26 ar
    50   25   58 1
    51   26   59 1
    52   27   28 1
    53   28   29 1
    54   28   60 1
    55   28   61 1
    56   29   33 1
    57   29   30 2
    58   30   31 1
    59   31   32 2
    60   31   34 1
    61   32   33 1
    62   34   39 ar
    63   34   35 ar
    64   35   36 ar
    65   35   62 1
    66   36   37 ar
    67   36   63 1
    68   37   38 ar
    69   37   64 1
    70   38   39 ar
    71   39   65 1
@<TRIPOS>MOLECULE
CHEMBL75438
   81    84     0     0     0
SMALL
USER_CHARGES

@<TRIPOS>ATOM
      1 C1         -0.0187    1.5258    0.0104 C.3       1 <0>        -0.1563
      2 C2          0.0021   -0.0041    0.0020 C.3       1 <0>        -0.0902
      3 C3         -1.4333   -0.5336    0.0129 C.3       1 <0>        -0.1527
      4 C4          0.7182   -0.4975   -1.2568 C.3       1 <0>        -0.1207
      5 C5          2.1873   -0.0730   -1.2073 C.3       1 <0>         0.0745
      6 C6          2.8632   -0.4509   -2.5001 C.2       1 <0>         0.3292
      7 O1          3.8045   -1.2073   -2.4907 O.2       1 <0>        -0.4450
      8 N1          2.8538   -0.7497   -0.0918 N.am      1 <0>        -0.7046
      9 C7          3.9492   -0.2021    0.4709 C.2       1 <0>         0.5168
     10 O2          4.3832    0.8508    0.0538 O.2       1 <0>        -0.5129
     11 C8          4.6348   -0.8981    1.6183 C.3       1 <0>         0.1320
     12 C9          3.6549   -1.0457    2.7841 C.3       1 <0>        -0.0716
     13 C10         4.3001   -1.8488    3.8840 C.2       1 <0>         0.0424
     14 C11         5.1043   -1.3651    4.8498 C.2       1 <0>         0.0442
     15 N2          5.4651   -2.4275    5.6338 N.pl3     1 <0>        -0.5001
     16 C12         4.8685   -3.5244    5.1193 C.cat     1 <0>         0.3131
     17 N3          4.1693   -3.1698    4.0760 N.pl3     1 <0>        -0.4672
     18 N4          5.7905   -0.1074    2.0489 N.am      1 <0>        -0.7049
     19 C13         6.8235   -0.7081    2.6722 C.2       1 <0>         0.5221
     20 O3          6.7963   -1.9032    2.8767 O.2       1 <0>        -0.5366
     21 C14         8.0123    0.1053    3.1151 C.3       1 <0>         0.1558
     22 C15         8.6538    0.7752    1.8982 C.3       1 <0>        -0.0931
     23 C16         9.7656    1.6849    2.3536 C.ar      1 <0>        -0.0694
     24 C17         9.5264    3.0098    2.5551 C.ar      1 <0>        -0.0952
     25 C18        10.5417    3.8662    2.9759 C.ar      1 <0>        -0.1116
     26 C19        11.8024    3.4030    3.1973 C.ar      1 <0>        -0.0973
     27 C20        12.0874    2.0415    2.9999 C.ar      1 <0>        -0.0462
     28 C21        11.0531    1.1690    2.5778 C.ar      1 <0>        -0.0255
     29 C22        11.3370   -0.1941    2.3861 C.ar      1 <0>        -0.1253
     30 C23        12.5960   -0.6581    2.6132 C.ar      1 <0>        -0.1025
     31 C24        13.6115    0.1986    3.0345 C.ar      1 <0>        -0.1246
     32 C25        13.3770    1.5267    3.2177 C.ar      1 <0>        -0.1001
     33 N5          8.9909   -0.7723    3.7618 N.am      1 <0>        -0.7016
     34 C26         9.8595   -0.2668    4.6599 C.2       1 <0>         0.6535
     35 O4          9.8310    0.9168    4.9331 O.2       1 <0>        -0.5454
     36 O5         10.7589   -1.0734    5.2543 O.3       1 <0>        -0.3537
     37 C27        11.6487   -0.4703    6.1958 C.3       1 <0>         0.1342
     38 C28        12.5759   -1.5191    6.7537 C.ar      1 <0>        -0.1008
     39 C29        12.2180   -2.2261    7.8864 C.ar      1 <0>        -0.0967
     40 C30        13.0684   -3.1881    8.3983 C.ar      1 <0>        -0.1234
     41 C31        14.2767   -3.4436    7.7772 C.ar      1 <0>        -0.1046
     42 C32        14.6342   -2.7373    6.6439 C.ar      1 <0>        -0.1211
     43 C33        13.7818   -1.7782    6.1296 C.ar      1 <0>        -0.0914
     44 H1          1.0039    1.9031    0.0027 H         1 <0>         0.0561
     45 H2         -0.5459    1.8868   -0.8726 H         1 <0>         0.0619
     46 H3         -0.5289    1.8773    0.9072 H         1 <0>         0.0587
     47 H4          0.5293   -0.3651    0.8851 H         1 <0>         0.0668
     48 H5         -1.9605   -0.1726   -0.8702 H         1 <0>         0.0608
     49 H6         -1.4185   -1.6235    0.0069 H         1 <0>         0.0552
     50 H7         -1.9435   -0.1821    0.9097 H         1 <0>         0.0589
     51 H8          0.6556   -1.5845   -1.3079 H         1 <0>         0.0766
     52 H9          0.2444   -0.0644   -2.1377 H         1 <0>         0.0959
     53 H10         2.2492    1.0061   -1.0668 H         1 <0>         0.1303
     54 H11         2.5058   -0.0452   -3.4350 H         1 <0>         0.1109
     55 H12         2.5067   -1.5918    0.2417 H         1 <0>         0.4032
     56 H13         4.9689   -1.8848    1.2974 H         1 <0>         0.1256
     57 H14         3.3895   -0.0586    3.1627 H         1 <0>         0.1241
     58 H15         2.7557   -1.5569    2.4404 H         1 <0>         0.1117
     59 H16         6.0417   -2.3981    6.4133 H         1 <0>         0.4657
     60 H17         5.4067   -0.3365    4.9805 H         1 <0>         0.2136
     61 H18         4.9526   -4.5280    5.5092 H         1 <0>         0.2641
     62 H19         5.8122    0.8485    1.8853 H         1 <0>         0.4220
     63 H20         7.6870    0.8694    3.8211 H         1 <0>         0.1243
     64 H21         9.0583    0.0114    1.2341 H         1 <0>         0.0872
     65 H22         7.9021    1.3583    1.3661 H         1 <0>         0.0941
     66 H23         8.5348    3.4030    2.3859 H         1 <0>         0.1189
     67 H24        10.3252    4.9133    3.1283 H         1 <0>         0.1224
     68 H25        12.5796    4.0787    3.5226 H         1 <0>         0.1250
     69 H26        10.5599   -0.8698    2.0605 H         1 <0>         0.1203
     70 H27        12.8114   -1.7059    2.4650 H         1 <0>         0.1193
     71 H28        14.6020   -0.1955    3.2079 H         1 <0>         0.1221
     72 H29        14.1739    2.1787    3.5437 H         1 <0>         0.1267
     73 H30         9.0137   -1.7172    3.5438 H         1 <0>         0.4129
     74 H31        12.2332    0.3040    5.6988 H         1 <0>         0.0787
     75 H32        11.0725   -0.0260    7.0073 H         1 <0>         0.0731
     76 H33        11.2740   -2.0265    8.3717 H         1 <0>         0.1204
     77 H34        12.7891   -3.7399    9.2837 H         1 <0>         0.1259
     78 H35        14.9415   -4.1948    8.1775 H         1 <0>         0.1266
     79 H36        15.5783   -2.9367    6.1589 H         1 <0>         0.1274
     80 H37        14.0595   -1.2290    5.2421 H         1 <0>         0.1251
     81 H38         3.6402   -3.7677    3.5251 H         1 <0>         0.4622
@<TRIPOS>BOND
     1    1    2 1
     2    1   44 1
     3    1   45 1
     4    1   46 1
     5    2    3 1
     6    2    4 1
     7    2   47 1
     8    3   48 1
     9    3   49 1
    10    3   50 1
    11    4    5 1
    12    4   51 1
    13    4   52 1
    14    5    6 1
    15    5    8 1
    16    5   53 1
    17    6    7 2
    18    6   54 1
    19    8    9 am
    20    8   55 1
    21    9   10 2
    22    9   11 1
    23   11   12 1
    24   11   18 1
    25   11   56 1
    26   12   57 1
    27   12   58 1
    28   12   13 1
    29   13   14 2
    30   13   17 1
    31   14   15 1
    32   14   60 1
    33   15   16 1
    34   15   59 1
    35   16   61 1
    36   16   17 2
    37   17   81 1
    38   18   19 am
    39   18   62 1
    40   19   20 2
    41   19   21 1
    42   21   22 1
    43   21   33 1
    44   21   63 1
    45   22   23 1
    46   22   64 1
    47   22   65 1
    48   23   28 ar
    49   23   24 ar
    50   24   25 ar
    51   24   66 1
    52   25   26 ar
    53   25   67 1
    54   26   27 ar
    55   26   68 1
    56   27   32 ar
    57   27   28 ar
    58   28   29 ar
    59   29   30 ar
    60   29   69 1
    61   30   31 ar
    62   30   70 1
    63   31   32 ar
    64   31   71 1
    65   32   72 1
    66   33   34 am
    67   33   73 1
    68   34   35 2
    69   34   36 1
    70   36   37 1
    71   37   38 1
    72   37   74 1
    73   37   75 1
    74   38   43 ar
    75   38   39 ar
    76   39   40 ar
    77   39   76 1
    78   40   41 ar
    79   40   77 1
    80   41   42 ar
    81   41   78 1
    82   42   43 ar
    83   42   79 1
    84   43   80 1
@<TRIPOS>MOLECULE
CHEMBL75438__1
   80    83     0     0     0
SMALL
USER_CHARGES

@<TRIPOS>ATOM
      1 C1         -0.0187    1.5258    0.0104 C.3       1 <0>        -0.1539
      2 C2          0.0021   -0.0041    0.0020 C.3       1 <0>        -0.0939
      3 C3          0.7182   -0.4975   -1.2568 C.3       1 <0>        -0.1501
      4 C4          0.7421   -0.5109    1.2415 C.3       1 <0>        -0.1181
      5 C5         -0.0416   -0.1236    2.4973 C.3       1 <0>         0.0751
      6 C6          0.7462   -0.5138    3.7213 C.2       1 <0>         0.3279
      7 O1          0.2794   -1.2937    4.5164 O.2       1 <0>        -0.4432
      8 N1         -1.3301   -0.8207    2.5031 N.am      1 <0>        -0.7083
      9 C7         -2.3734   -0.3028    3.1812 C.2       1 <0>         0.5204
     10 O2         -2.2455    0.7404    3.7865 O.2       1 <0>        -0.5259
     11 C8         -3.6989   -1.0198    3.1872 C.3       1 <0>         0.1387
     12 C9         -4.2165   -1.1468    1.7530 C.3       1 <0>        -0.0499
     13 C10        -5.4790   -1.9697    1.7456 C.2       1 <0>        -0.0194
     14 C11        -6.7300   -1.5226    1.9664 C.2       1 <0>        -0.0019
     15 N2         -7.5666   -2.5666    1.8707 N.2       1 <0>        -0.4829
     16 C12        -6.8816   -3.6436    1.5989 C.2       1 <0>         0.1922
     17 N3         -5.5752   -3.3142    1.5074 N.pl3     1 <0>        -0.5599
     18 N4         -4.6616   -0.2598    3.9883 N.am      1 <0>        -0.7082
     19 C13        -5.7083   -0.8884    4.5591 C.2       1 <0>         0.5196
     20 O3         -5.8532   -2.0832    4.4095 O.2       1 <0>        -0.5064
     21 C14        -6.6986   -0.1066    5.3832 C.3       1 <0>         0.1609
     22 C15        -5.9757    0.5511    6.5604 C.3       1 <0>        -0.0943
     23 C16        -6.9398    1.4311    7.3136 C.ar      1 <0>        -0.0578
     24 C17        -7.0155    2.7608    7.0322 C.ar      1 <0>        -0.1010
     25 C18        -7.9006    3.5900    7.7180 C.ar      1 <0>        -0.1083
     26 C19        -8.7152    3.0946    8.6896 C.ar      1 <0>        -0.1052
     27 C20        -8.6654    1.7270    9.0079 C.ar      1 <0>        -0.0448
     28 C21        -7.7694    0.8823    8.3059 C.ar      1 <0>        -0.0254
     29 C22        -7.7240   -0.4869    8.6203 C.ar      1 <0>        -0.1174
     30 C23        -8.5426   -0.9831    9.5875 C.ar      1 <0>        -0.1081
     31 C24        -9.4283   -0.1537   10.2733 C.ar      1 <0>        -0.1236
     32 C25        -9.4905    1.1792   10.0052 C.ar      1 <0>        -0.1052
     33 N5         -7.7341   -1.0108    5.8896 N.am      1 <0>        -0.6925
     34 C26        -8.9537   -0.5305    6.2028 C.2       1 <0>         0.6590
     35 O4         -9.1945    0.6526    6.0652 O.2       1 <0>        -0.5548
     36 O5         -9.9054   -1.3615    6.6682 O.3       1 <0>        -0.3532
     37 C27       -11.1748   -0.7842    6.9800 C.3       1 <0>         0.1332
     38 C28       -12.1051   -1.8579    7.4829 C.ar      1 <0>        -0.0951
     39 C29       -12.8962   -2.5595    6.5925 C.ar      1 <0>        -0.0934
     40 C30       -13.7494   -3.5444    7.0537 C.ar      1 <0>        -0.1235
     41 C31       -13.8113   -3.8280    8.4053 C.ar      1 <0>        -0.1091
     42 C32       -13.0196   -3.1269    9.2955 C.ar      1 <0>        -0.1248
     43 C33       -12.1631   -2.1450    8.8338 C.ar      1 <0>        -0.0928
     44 H1          1.0039    1.9031    0.0027 H         1 <0>         0.0586
     45 H2         -0.5459    1.8868   -0.8726 H         1 <0>         0.0578
     46 H3         -0.5289    1.8773    0.9072 H         1 <0>         0.0571
     47 H4         -1.0205   -0.3814    0.0098 H         1 <0>         0.0718
     48 H5          1.7408   -0.1202   -1.2645 H         1 <0>         0.0577
     49 H6          0.7330   -1.5874   -1.2628 H         1 <0>         0.0550
     50 H7          0.1910   -0.1364   -2.1398 H         1 <0>         0.0580
     51 H8          0.8346   -1.5958    1.1912 H         1 <0>         0.0753
     52 H9          1.7350   -0.0630    1.2804 H         1 <0>         0.0915
     53 H10        -0.2110    0.9531    2.5022 H         1 <0>         0.1273
     54 H11         1.7281   -0.0960    3.8873 H         1 <0>         0.1057
     55 H12        -1.4324   -1.6550    2.0189 H         1 <0>         0.4043
     56 H13        -3.5725   -2.0134    3.6171 H         1 <0>         0.1168
     57 H14        -4.4272   -0.1547    1.3536 H         1 <0>         0.0975
     58 H15        -3.4616   -1.6341    1.1360 H         1 <0>         0.0834
     59 H16        -4.8418   -3.9179    1.3110 H         1 <0>         0.4147
     60 H17        -7.0104   -0.5023    2.1827 H         1 <0>         0.1526
     61 H18        -7.2920   -4.6337    1.4658 H         1 <0>         0.2024
     62 H19        -4.5457    0.6958    4.1080 H         1 <0>         0.4123
     63 H20        -7.1594    0.6629    4.7639 H         1 <0>         0.1198
     64 H21        -5.5909   -0.2203    7.2274 H         1 <0>         0.0848
     65 H22        -5.1484    1.1547    6.1873 H         1 <0>         0.0931
     66 H23        -6.3796    3.1794    6.2662 H         1 <0>         0.1190
     67 H24        -7.9408    4.6416    7.4753 H         1 <0>         0.1197
     68 H25        -9.3958    3.7494    9.2134 H         1 <0>         0.1218
     69 H26        -7.0432   -1.1417    8.0967 H         1 <0>         0.1231
     70 H27        -8.5056   -2.0355    9.8272 H         1 <0>         0.1186
     71 H28       -10.0673   -0.5731   11.0363 H         1 <0>         0.1193
     72 H29       -10.1811    1.8099   10.5452 H         1 <0>         0.1235
     73 H30        -7.5419   -1.9552    5.9995 H         1 <0>         0.4135
     74 H31       -11.0486   -0.0230    7.7500 H         1 <0>         0.0757
     75 H32       -11.5966   -0.3283    6.0842 H         1 <0>         0.0727
     76 H33       -12.8478   -2.3380    5.5366 H         1 <0>         0.1240
     77 H34       -14.3680   -4.0922    6.3582 H         1 <0>         0.1249
     78 H35       -14.4785   -4.5970    8.7657 H         1 <0>         0.1235
     79 H36       -13.0682   -3.3482   10.3515 H         1 <0>         0.1243
     80 H37       -11.5418   -1.5998    9.5289 H         1 <0>         0.1242
@<TRIPOS>BOND
     1    1    2 1
     2    1   44 1
     3    1   45 1
     4    1   46 1
     5    2    3 1
     6    2    4 1
     7    2   47 1
     8    3   48 1
     9    3   49 1
    10    3   50 1
    11    4    5 1
    12    4   51 1
    13    4   52 1
    14    5    6 1
    15    5    8 1
    16    5   53 1
    17    6    7 2
    18    6   54 1
    19    8    9 am
    20    8   55 1
    21    9   10 2
    22    9   11 1
    23   11   12 1
    24   11   18 1
    25   11   56 1
    26   12   57 1
    27   12   58 1
    28   12   13 1
    29   13   14 2
    30   13   17 1
    31   14   15 1
    32   14   60 1
    33   15   16 2
    34   16   61 1
    35   16   17 1
    36   17   59 1
    37   18   19 am
    38   18   62 1
    39   19   20 2
    40   19   21 1
    41   21   22 1
    42   21   33 1
    43   21   63 1
    44   22   23 1
    45   22   64 1
    46   22   65 1
    47   23   28 ar
    48   23   24 ar
    49   24   25 ar
    50   24   66 1
    51   25   26 ar
    52   25   67 1
    53   26   27 ar
    54   26   68 1
    55   27   32 ar
    56   27   28 ar
    57   28   29 ar
    58   29   30 ar
    59   29   69 1
    60   30   31 ar
    61   30   70 1
    62   31   32 ar
    63   31   71 1
    64   32   72 1
    65   33   34 am
    66   33   73 1
    67   34   35 2
    68   34   36 1
    69   36   37 1
    70   37   38 1
    71   37   74 1
    72   37   75 1
    73   38   43 ar
    74   38   39 ar
    75   39   40 ar
    76   39   76 1
    77   40   41 ar
    78   40   77 1
    79   41   42 ar
    80   41   78 1
    81   42   43 ar
    82   42   79 1
    83   43   80 1
@<TRIPOS>MOLECULE
CHEMBL75438__2
   80    83     0     0     0
SMALL
USER_CHARGES

@<TRIPOS>ATOM
      1 C1         -0.0187    1.5258    0.0104 C.3       1 <0>        -0.1532
      2 C2          0.0021   -0.0041    0.0020 C.3       1 <0>        -0.0944
      3 C3          0.7182   -0.4975   -1.2568 C.3       1 <0>        -0.1497
      4 C4          0.7421   -0.5109    1.2415 C.3       1 <0>        -0.1180
      5 C5         -0.0416   -0.1236    2.4973 C.3       1 <0>         0.0755
      6 C6          0.7462   -0.5138    3.7213 C.2       1 <0>         0.3269
      7 O1          0.2794   -1.2937    4.5164 O.2       1 <0>        -0.4418
      8 N1         -1.3301   -0.8207    2.5031 N.am      1 <0>        -0.7077
      9 C7         -2.3734   -0.3028    3.1812 C.2       1 <0>         0.5207
     10 O2         -2.2455    0.7404    3.7865 O.2       1 <0>        -0.5337
     11 C8         -3.6989   -1.0198    3.1872 C.3       1 <0>         0.1412
     12 C9         -4.2165   -1.1468    1.7530 C.3       1 <0>        -0.0384
     13 C10        -5.4790   -1.9697    1.7456 C.2       1 <0>         0.0067
     14 C11        -6.6653   -1.5943    1.2306 C.2       1 <0>        -0.0571
     15 N2         -7.5323   -2.6338    1.4344 N.pl3     1 <0>        -0.5704
     16 C12        -6.8450   -3.6089    2.0674 C.2       1 <0>         0.1950
     17 N3         -5.6165   -3.2066    2.2457 N.2       1 <0>        -0.4522
     18 N4         -4.6616   -0.2598    3.9883 N.am      1 <0>        -0.7066
     19 C13        -5.7083   -0.8884    4.5591 C.2       1 <0>         0.5101
     20 O3         -5.8532   -2.0832    4.4095 O.2       1 <0>        -0.4936
     21 C14        -6.6986   -0.1066    5.3832 C.3       1 <0>         0.1595
     22 C15        -5.9757    0.5511    6.5604 C.3       1 <0>        -0.0941
     23 C16        -6.9398    1.4311    7.3136 C.ar      1 <0>        -0.0571
     24 C17        -7.0155    2.7608    7.0322 C.ar      1 <0>        -0.1018
     25 C18        -7.9006    3.5900    7.7180 C.ar      1 <0>        -0.1080
     26 C19        -8.7152    3.0946    8.6896 C.ar      1 <0>        -0.1061
     27 C20        -8.6654    1.7270    9.0079 C.ar      1 <0>        -0.0449
     28 C21        -7.7694    0.8823    8.3059 C.ar      1 <0>        -0.0260
     29 C22        -7.7240   -0.4869    8.6203 C.ar      1 <0>        -0.1172
     30 C23        -8.5426   -0.9831    9.5875 C.ar      1 <0>        -0.1085
     31 C24        -9.4283   -0.1537   10.2733 C.ar      1 <0>        -0.1237
     32 C25        -9.4905    1.1792   10.0052 C.ar      1 <0>        -0.1056
     33 N5         -7.7341   -1.0108    5.8896 N.am      1 <0>        -0.6938
     34 C26        -8.9537   -0.5305    6.2028 C.2       1 <0>         0.6557
     35 O4         -9.1945    0.6526    6.0652 O.2       1 <0>        -0.5543
     36 O5         -9.9054   -1.3615    6.6682 O.3       1 <0>        -0.3544
     37 C27       -11.1748   -0.7842    6.9800 C.3       1 <0>         0.1333
     38 C28       -12.1051   -1.8579    7.4829 C.ar      1 <0>        -0.0957
     39 C29       -12.8962   -2.5595    6.5925 C.ar      1 <0>        -0.0951
     40 C30       -13.7494   -3.5444    7.0537 C.ar      1 <0>        -0.1236
     41 C31       -13.8113   -3.8280    8.4053 C.ar      1 <0>        -0.1083
     42 C32       -13.0196   -3.1269    9.2955 C.ar      1 <0>        -0.1234
     43 C33       -12.1631   -2.1450    8.8338 C.ar      1 <0>        -0.0920
     44 H1          1.0039    1.9031    0.0027 H         1 <0>         0.0577
     45 H2         -0.5459    1.8868   -0.8726 H         1 <0>         0.0568
     46 H3         -0.5289    1.8773    0.9072 H         1 <0>         0.0569
     47 H4         -1.0205   -0.3814    0.0098 H         1 <0>         0.0736
     48 H5          1.7408   -0.1202   -1.2645 H         1 <0>         0.0567
     49 H6          0.7330   -1.5874   -1.2628 H         1 <0>         0.0557
     50 H7          0.1910   -0.1364   -2.1398 H         1 <0>         0.0573
     51 H8          0.8346   -1.5958    1.1912 H         1 <0>         0.0761
     52 H9          1.7350   -0.0630    1.2804 H         1 <0>         0.0900
     53 H10        -0.2110    0.9531    2.5022 H         1 <0>         0.1256
     54 H11         1.7281   -0.0960    3.8873 H         1 <0>         0.1039
     55 H12        -1.4324   -1.6550    2.0189 H         1 <0>         0.4071
     56 H13        -3.5725   -2.0134    3.6171 H         1 <0>         0.1268
     57 H14        -4.4272   -0.1547    1.3536 H         1 <0>         0.0815
     58 H15        -3.4616   -1.6341    1.1360 H         1 <0>         0.0861
     59 H16        -8.4659   -2.6644    1.1730 H         1 <0>         0.4166
     60 H17        -6.8897   -0.6538    0.7495 H         1 <0>         0.1663
     61 H18        -7.2449   -4.5648    2.3719 H         1 <0>         0.1998
     62 H19        -4.5457    0.6958    4.1080 H         1 <0>         0.4085
     63 H20        -7.1594    0.6629    4.7639 H         1 <0>         0.1160
     64 H21        -5.5909   -0.2203    7.2274 H         1 <0>         0.0855
     65 H22        -5.1484    1.1547    6.1873 H         1 <0>         0.0936
     66 H23        -6.3796    3.1794    6.2662 H         1 <0>         0.1189
     67 H24        -7.9408    4.6416    7.4753 H         1 <0>         0.1196
     68 H25        -9.3958    3.7494    9.2134 H         1 <0>         0.1217
     69 H26        -7.0432   -1.1417    8.0967 H         1 <0>         0.1237
     70 H27        -8.5056   -2.0355    9.8272 H         1 <0>         0.1189
     71 H28       -10.0673   -0.5731   11.0363 H         1 <0>         0.1193
     72 H29       -10.1811    1.8099   10.5452 H         1 <0>         0.1235
     73 H30        -7.5419   -1.9552    5.9995 H         1 <0>         0.4137
     74 H31       -11.0486   -0.0230    7.7500 H         1 <0>         0.0766
     75 H32       -11.5966   -0.3283    6.0842 H         1 <0>         0.0712
     76 H33       -12.8478   -2.3380    5.5366 H         1 <0>         0.1219
     77 H34       -14.3680   -4.0922    6.3582 H         1 <0>         0.1248
     78 H35       -14.4785   -4.5970    8.7657 H         1 <0>         0.1243
     79 H36       -13.0682   -3.3482   10.3515 H         1 <0>         0.1252
     80 H37       -11.5418   -1.5998    9.5289 H         1 <0>         0.1250
@<TRIPOS>BOND
     1    1    2 1
     2    1   44 1
     3    1   45 1
     4    1   46 1
     5    2    3 1
     6    2    4 1
     7    2   47 1
     8    3   48 1
     9    3   49 1
    10    3   50 1
    11    4    5 1
    12    4   51 1
    13    4   52 1
    14    5    6 1
    15    5    8 1
    16    5   53 1
    17    6    7 2
    18    6   54 1
    19    8    9 am
    20    8   55 1
    21    9   10 2
    22    9   11 1
    23   11   12 1
    24   11   18 1
    25   11   56 1
    26   12   57 1
    27   12   58 1
    28   12   13 1
    29   13   14 2
    30   13   17 1
    31   14   15 1
    32   14   60 1
    33   15   16 1
    34   15   59 1
    35   16   61 1
    36   16   17 2
    37   18   19 am
    38   18   62 1
    39   19   20 2
    40   19   21 1
    41   21   22 1
    42   21   33 1
    43   21   63 1
    44   22   23 1
    45   22   64 1
    46   22   65 1
    47   23   28 ar
    48   23   24 ar
    49   24   25 ar
    50   24   66 1
    51   25   26 ar
    52   25   67 1
    53   26   27 ar
    54   26   68 1
    55   27   32 ar
    56   27   28 ar
    57   28   29 ar
    58   29   30 ar
    59   29   69 1
    60   30   31 ar
    61   30   70 1
    62   31   32 ar
    63   31   71 1
    64   32   72 1
    65   33   34 am
    66   33   73 1
    67   34   35 2
    68   34   36 1
    69   36   37 1
    70   37   38 1
    71   37   74 1
    72   37   75 1
    73   38   43 ar
    74   38   39 ar
    75   39   40 ar
    76   39   76 1
    77   40   41 ar
    78   40   77 1
    79   41   42 ar
    80   41   78 1
    81   42   43 ar
    82   42   79 1
    83   43   80 1
@<TRIPOS>MOLECULE
CHEMBL75438__3
   81    84     0     0     0
SMALL
USER_CHARGES

@<TRIPOS>ATOM
      1 C1         -0.0187    1.5258    0.0104 C.3       1 <0>        -0.1563
      2 C2          0.0021   -0.0041    0.0020 C.3       1 <0>        -0.0902
      3 C3         -1.4333   -0.5336    0.0129 C.3       1 <0>        -0.1527
      4 C4          0.7182   -0.4975   -1.2568 C.3       1 <0>        -0.1207
      5 C5          2.1873   -0.0730   -1.2073 C.3       1 <0>         0.0745
      6 C6          2.8632   -0.4509   -2.5001 C.2       1 <0>         0.3289
      7 O1          3.8045   -1.2073   -2.4907 O.2       1 <0>        -0.4448
      8 N1          2.8538   -0.7497   -0.0918 N.am      1 <0>        -0.7045
      9 C7          3.9492   -0.2021    0.4709 C.2       1 <0>         0.5166
     10 O2          4.3832    0.8508    0.0538 O.2       1 <0>        -0.5125
     11 C8          4.6348   -0.8981    1.6183 C.3       1 <0>         0.1314
     12 C9          3.6549   -1.0457    2.7841 C.3       1 <0>        -0.0723
     13 C10         4.3001   -1.8488    3.8840 C.2       1 <0>         0.0451
     14 C11         5.1043   -1.3651    4.8498 C.2       1 <0>         0.0374
     15 N2          5.4651   -2.4275    5.6338 N.pl3     1 <0>        -0.5017
     16 C12         4.8685   -3.5244    5.1193 C.cat     1 <0>         0.3150
     17 N3          4.1693   -3.1698    4.0760 N.pl3     1 <0>        -0.4672
     18 N4          5.7905   -0.1074    2.0489 N.am      1 <0>        -0.7054
     19 C13         6.8235   -0.7081    2.6722 C.2       1 <0>         0.5232
     20 O3          6.7963   -1.9032    2.8767 O.2       1 <0>        -0.5355
     21 C14         8.0123    0.1053    3.1151 C.3       1 <0>         0.1506
     22 C15         7.5558    1.1779    4.1061 C.3       1 <0>        -0.0897
     23 C16         8.7206    2.0682    4.4547 C.ar      1 <0>        -0.0682
     24 C17         9.4665    1.8155    5.5650 C.ar      1 <0>        -0.1012
     25 C18        10.5470    2.6275    5.9034 C.ar      1 <0>        -0.1179
     26 C19        10.8879    3.6973    5.1338 C.ar      1 <0>        -0.0907
     27 C20        10.1413    3.9896    3.9800 C.ar      1 <0>        -0.0444
     28 C21         9.0459    3.1599    3.6323 C.ar      1 <0>        -0.0223
     29 C22         8.3028    3.4490    2.4749 C.ar      1 <0>        -0.1205
     30 C23         8.6474    4.5151    1.7024 C.ar      1 <0>        -0.1045
     31 C24         9.7285    5.3271    2.0407 C.ar      1 <0>        -0.1182
     32 C25        10.4626    5.0857    3.1610 C.ar      1 <0>        -0.0993
     33 N5          8.9909   -0.7723    3.7618 N.am      1 <0>        -0.6974
     34 C26        10.2931   -0.4259    3.7881 C.2       1 <0>         0.6482
     35 O4         10.6555    0.6144    3.2753 O.2       1 <0>        -0.5372
     36 O5         11.1925   -1.2324    4.3825 O.3       1 <0>        -0.3588
     37 C27        12.5553   -0.8028    4.3730 C.3       1 <0>         0.1326
     38 C28        13.4091   -1.8247    5.0784 C.ar      1 <0>        -0.1033
     39 C29        13.6231   -1.7249    6.4405 C.ar      1 <0>        -0.0938
     40 C30        14.4063   -2.6623    7.0876 C.ar      1 <0>        -0.1228
     41 C31        14.9752   -3.6997    6.3727 C.ar      1 <0>        -0.1047
     42 C32        14.7604   -3.8001    5.0109 C.ar      1 <0>        -0.1217
     43 C33        13.9737   -2.8651    4.3645 C.ar      1 <0>        -0.0938
     44 H1          1.0039    1.9031    0.0027 H         1 <0>         0.0561
     45 H2         -0.5459    1.8868   -0.8726 H         1 <0>         0.0619
     46 H3         -0.5289    1.8773    0.9072 H         1 <0>         0.0587
     47 H4          0.5293   -0.3651    0.8851 H         1 <0>         0.0668
     48 H5         -1.9605   -0.1726   -0.8702 H         1 <0>         0.0608
     49 H6         -1.4185   -1.6235    0.0069 H         1 <0>         0.0552
     50 H7         -1.9435   -0.1821    0.9097 H         1 <0>         0.0590
     51 H8          0.6556   -1.5845   -1.3079 H         1 <0>         0.0766
     52 H9          0.2444   -0.0644   -2.1377 H         1 <0>         0.0959
     53 H10         2.2492    1.0061   -1.0668 H         1 <0>         0.1305
     54 H11         2.5058   -0.0452   -3.4350 H         1 <0>         0.1109
     55 H12         2.5067   -1.5918    0.2417 H         1 <0>         0.4032
     56 H13         4.9689   -1.8848    1.2974 H         1 <0>         0.1259
     57 H14         3.3895   -0.0586    3.1627 H         1 <0>         0.1250
     58 H15         2.7557   -1.5569    2.4404 H         1 <0>         0.1126
     59 H16         6.0417   -2.3981    6.4133 H         1 <0>         0.4660
     60 H17         5.4067   -0.3365    4.9805 H         1 <0>         0.2143
     61 H18         4.9526   -4.5280    5.5092 H         1 <0>         0.2649
     62 H19         5.8122    0.8485    1.8853 H         1 <0>         0.4210
     63 H20         8.4693    0.5826    2.2482 H         1 <0>         0.1295
     64 H21         6.7637    1.7758    3.6551 H         1 <0>         0.0941
     65 H22         7.1800    0.7002    5.0109 H         1 <0>         0.0773
     66 H23         9.2168    0.9733    6.1933 H         1 <0>         0.1098
     67 H24        11.1226    2.4050    6.7898 H         1 <0>         0.1192
     68 H25        11.7276    4.3183    5.4088 H         1 <0>         0.1257
     69 H26         7.4630    2.8282    2.1999 H         1 <0>         0.1168
     70 H27         8.0746    4.7350    0.8135 H         1 <0>         0.1233
     71 H28         9.9809    6.1667    1.4101 H         1 <0>         0.1244
     72 H29        11.2972    5.7240    3.4111 H         1 <0>         0.1275
     73 H30         8.7016   -1.6028    4.1712 H         1 <0>         0.4087
     74 H31        12.8949   -0.6943    3.3429 H         1 <0>         0.0779
     75 H32        12.6377    0.1557    4.8855 H         1 <0>         0.0796
     76 H33        13.1787   -0.9144    6.9990 H         1 <0>         0.1234
     77 H34        14.5740   -2.5839    8.1516 H         1 <0>         0.1271
     78 H35        15.5876   -4.4317    6.8782 H         1 <0>         0.1270
     79 H36        15.2052   -4.6104    4.4523 H         1 <0>         0.1275
     80 H37        13.8029   -2.9455    3.3011 H         1 <0>         0.1239
     81 H38         3.6402   -3.7677    3.5251 H         1 <0>         0.4626
@<TRIPOS>BOND
     1    1    2 1
     2    1   44 1
     3    1   45 1
     4    1   46 1
     5    2    3 1
     6    2    4 1
     7    2   47 1
     8    3   48 1
     9    3   49 1
    10    3   50 1
    11    4    5 1
    12    4   51 1
    13    4   52 1
    14    5    6 1
    15    5    8 1
    16    5   53 1
    17    6    7 2
    18    6   54 1
    19    8    9 am
    20    8   55 1
    21    9   10 2
    22    9   11 1
    23   11   12 1
    24   11   18 1
    25   11   56 1
    26   12   57 1
    27   12   58 1
    28   12   13 1
    29   13   14 2
    30   13   17 1
    31   14   15 1
    32   14   60 1
    33   15   16 1
    34   15   59 1
    35   16   61 1
    36   16   17 2
    37   17   81 1
    38   18   19 am
    39   18   62 1
    40   19   20 2
    41   19   21 1
    42   21   22 1
    43   21   33 1
    44   21   63 1
    45   22   23 1
    46   22   64 1
    47   22   65 1
    48   23   28 ar
    49   23   24 ar
    50   24   25 ar
    51   24   66 1
    52   25   26 ar
    53   25   67 1
    54   26   27 ar
    55   26   68 1
    56   27   32 ar
    57   27   28 ar
    58   28   29 ar
    59   29   30 ar
    60   29   69 1
    61   30   31 ar
    62   30   70 1
    63   31   32 ar
    64   31   71 1
    65   32   72 1
    66   33   34 am
    67   33   73 1
    68   34   35 2
    69   34   36 1
    70   36   37 1
    71   37   38 1
    72   37   74 1
    73   37   75 1
    74   38   43 ar
    75   38   39 ar
    76   39   40 ar
    77   39   76 1
    78   40   41 ar
    79   40   77 1
    80   41   42 ar
    81   41   78 1
    82   42   43 ar
    83   42   79 1
    84   43   80 1
@<TRIPOS>MOLECULE
CHEMBL75438__4
   80    83     0     0     0
SMALL
USER_CHARGES

@<TRIPOS>ATOM
      1 C1         -0.0187    1.5258    0.0104 C.3       1 <0>        -0.1539
      2 C2          0.0021   -0.0041    0.0020 C.3       1 <0>        -0.0938
      3 C3          0.7182   -0.4975   -1.2568 C.3       1 <0>        -0.1501
      4 C4          0.7421   -0.5109    1.2415 C.3       1 <0>        -0.1181
      5 C5         -0.0416   -0.1236    2.4973 C.3       1 <0>         0.0751
      6 C6          0.7462   -0.5138    3.7213 C.2       1 <0>         0.3276
      7 O1          0.2794   -1.2937    4.5164 O.2       1 <0>        -0.4431
      8 N1         -1.3301   -0.8207    2.5031 N.am      1 <0>        -0.7082
      9 C7         -2.3734   -0.3028    3.1812 C.2       1 <0>         0.5200
     10 O2         -2.2455    0.7404    3.7865 O.2       1 <0>        -0.5254
     11 C8         -3.6989   -1.0198    3.1872 C.3       1 <0>         0.1381
     12 C9         -4.2165   -1.1468    1.7530 C.3       1 <0>        -0.0504
     13 C10        -5.4790   -1.9697    1.7456 C.2       1 <0>        -0.0180
     14 C11        -6.7300   -1.5226    1.9664 C.2       1 <0>        -0.0071
     15 N2         -7.5666   -2.5666    1.8707 N.2       1 <0>        -0.4842
     16 C12        -6.8816   -3.6436    1.5989 C.2       1 <0>         0.1930
     17 N3         -5.5752   -3.3142    1.5074 N.pl3     1 <0>        -0.5594
     18 N4         -4.6616   -0.2598    3.9883 N.am      1 <0>        -0.7085
     19 C13        -5.7083   -0.8884    4.5591 C.2       1 <0>         0.5196
     20 O3         -5.8532   -2.0832    4.4095 O.2       1 <0>        -0.5056
     21 C14        -6.6986   -0.1066    5.3832 C.3       1 <0>         0.1591
     22 C15        -7.3454    0.9736    4.5139 C.3       1 <0>        -0.0945
     23 C16        -8.2433    1.8331    5.3660 C.ar      1 <0>        -0.0542
     24 C17        -9.5737    1.5579    5.4517 C.ar      1 <0>        -0.1050
     25 C18       -10.4194    2.3413    6.2342 C.ar      1 <0>        -0.1107
     26 C19        -9.9398    3.4049    6.9355 C.ar      1 <0>        -0.1030
     27 C20        -8.5721    3.7199    6.8718 C.ar      1 <0>        -0.0438
     28 C21        -7.7107    2.9192    6.0806 C.ar      1 <0>        -0.0238
     29 C22        -6.3414    3.2309    6.0217 C.ar      1 <0>        -0.1113
     30 C23        -5.8612    4.2907    6.7275 C.ar      1 <0>        -0.1137
     31 C24        -6.7071    5.0741    7.5107 C.ar      1 <0>        -0.1205
     32 C25        -8.0404    4.8105    7.5814 C.ar      1 <0>        -0.1041
     33 N5         -7.7341   -1.0108    5.8896 N.am      1 <0>        -0.6907
     34 C26        -8.4129   -0.6973    7.0109 C.2       1 <0>         0.6501
     35 O4         -8.1661    0.3354    7.6018 O.2       1 <0>        -0.5501
     36 O5         -9.3646   -1.5282    7.4763 O.3       1 <0>        -0.3579
     37 C27       -10.0441   -1.1329    8.6696 C.3       1 <0>         0.1319
     38 C28       -11.0658   -2.1784    9.0357 C.ar      1 <0>        -0.0985
     39 C29       -12.3539   -2.0888    8.5420 C.ar      1 <0>        -0.0925
     40 C30       -13.2911   -3.0478    8.8779 C.ar      1 <0>        -0.1234
     41 C31       -12.9401   -4.0967    9.7071 C.ar      1 <0>        -0.1083
     42 C32       -11.6518   -4.1868   10.2000 C.ar      1 <0>        -0.1235
     43 C33       -10.7134   -3.2301    9.8607 C.ar      1 <0>        -0.0940
     44 H1          1.0039    1.9031    0.0027 H         1 <0>         0.0586
     45 H2         -0.5459    1.8868   -0.8726 H         1 <0>         0.0578
     46 H3         -0.5289    1.8773    0.9072 H         1 <0>         0.0571
     47 H4         -1.0205   -0.3814    0.0098 H         1 <0>         0.0718
     48 H5          1.7408   -0.1202   -1.2645 H         1 <0>         0.0577
     49 H6          0.7330   -1.5874   -1.2628 H         1 <0>         0.0550
     50 H7          0.1910   -0.1364   -2.1398 H         1 <0>         0.0580
     51 H8          0.8346   -1.5958    1.1912 H         1 <0>         0.0753
     52 H9          1.7350   -0.0630    1.2804 H         1 <0>         0.0915
     53 H10        -0.2110    0.9531    2.5022 H         1 <0>         0.1274
     54 H11         1.7281   -0.0960    3.8873 H         1 <0>         0.1057
     55 H12        -1.4324   -1.6550    2.0189 H         1 <0>         0.4043
     56 H13        -3.5725   -2.0134    3.6171 H         1 <0>         0.1169
     57 H14        -4.4272   -0.1547    1.3536 H         1 <0>         0.0982
     58 H15        -3.4616   -1.6341    1.1360 H         1 <0>         0.0839
     59 H16        -4.8418   -3.9179    1.3110 H         1 <0>         0.4152
     60 H17        -7.0104   -0.5023    2.1827 H         1 <0>         0.1553
     61 H18        -7.2920   -4.6337    1.4658 H         1 <0>         0.2029
     62 H19        -4.5457    0.6958    4.1080 H         1 <0>         0.4113
     63 H20        -6.1836    0.3620    6.2219 H         1 <0>         0.1189
     64 H21        -6.5683    1.5927    4.0656 H         1 <0>         0.0900
     65 H22        -7.9338    0.5023    3.7267 H         1 <0>         0.0904
     66 H23        -9.9799    0.7200    4.9045 H         1 <0>         0.1149
     67 H24       -11.4712    2.1013    6.2849 H         1 <0>         0.1172
     68 H25       -10.6073    4.0037    7.5375 H         1 <0>         0.1218
     69 H26        -5.6739    2.6323    5.4196 H         1 <0>         0.1195
     70 H27        -4.8086    4.5280    6.6804 H         1 <0>         0.1207
     71 H28        -6.3002    5.9093    8.0613 H         1 <0>         0.1201
     72 H29        -8.6840    5.4267    8.1917 H         1 <0>         0.1235
     73 H30        -7.9311   -1.8352    5.4179 H         1 <0>         0.4172
     74 H31        -9.3234   -1.0294    9.4808 H         1 <0>         0.0751
     75 H32       -10.5440   -0.1786    8.5039 H         1 <0>         0.0776
     76 H33       -12.6281   -1.2693    7.8942 H         1 <0>         0.1243
     77 H34       -14.2976   -2.9774    8.4927 H         1 <0>         0.1257
     78 H35       -13.6725   -4.8456    9.9700 H         1 <0>         0.1245
     79 H36       -11.3777   -5.0061   10.8481 H         1 <0>         0.1253
     80 H37        -9.7059   -3.3026   10.2429 H         1 <0>         0.1236
@<TRIPOS>BOND
     1    1    2 1
     2    1   44 1
     3    1   45 1
     4    1   46 1
     5    2    3 1
     6    2    4 1
     7    2   47 1
     8    3   48 1
     9    3   49 1
    10    3   50 1
    11    4    5 1
    12    4   51 1
    13    4   52 1
    14    5    6 1
    15    5    8 1
    16    5   53 1
    17    6    7 2
    18    6   54 1
    19    8    9 am
    20    8   55 1
    21    9   10 2
    22    9   11 1
    23   11   12 1
    24   11   18 1
    25   11   56 1
    26   12   57 1
    27   12   58 1
    28   12   13 1
    29   13   14 2
    30   13   17 1
    31   14   15 1
    32   14   60 1
    33   15   16 2
    34   16   61 1
    35   16   17 1
    36   17   59 1
    37   18   19 am
    38   18   62 1
    39   19   20 2
    40   19   21 1
    41   21   22 1
    42   21   33 1
    43   21   63 1
    44   22   23 1
    45   22   64 1
    46   22   65 1
    47   23   28 ar
    48   23   24 ar
    49   24   25 ar
    50   24   66 1
    51   25   26 ar
    52   25   67 1
    53   26   27 ar
    54   26   68 1
    55   27   32 ar
    56   27   28 ar
    57   28   29 ar
    58   29   30 ar
    59   29   69 1
    60   30   31 ar
    61   30   70 1
    62   31   32 ar
    63   31   71 1
    64   32   72 1
    65   33   34 am
    66   33   73 1
    67   34   35 2
    68   34   36 1
    69   36   37 1
    70   37   38 1
    71   37   74 1
    72   37   75 1
    73   38   43 ar
    74   38   39 ar
    75   39   40 ar
    76   39   76 1
    77   40   41 ar
    78   40   77 1
    79   41   42 ar
    80   41   78 1
    81   42   43 ar
    82   42   79 1
    83   43   80 1
@<TRIPOS>MOLECULE
CHEMBL75438__5
   80    83     0     0     0
SMALL
USER_CHARGES

@<TRIPOS>ATOM
      1 C1         -0.0187    1.5258    0.0104 C.3       1 <0>        -0.1532
      2 C2          0.0021   -0.0041    0.0020 C.3       1 <0>        -0.0943
      3 C3          0.7182   -0.4975   -1.2568 C.3       1 <0>        -0.1497
      4 C4          0.7421   -0.5109    1.2415 C.3       1 <0>        -0.1180
      5 C5         -0.0416   -0.1236    2.4973 C.3       1 <0>         0.0755
      6 C6          0.7462   -0.5138    3.7213 C.2       1 <0>         0.3266
      7 O1          0.2794   -1.2937    4.5164 O.2       1 <0>        -0.4416
      8 N1         -1.3301   -0.8207    2.5031 N.am      1 <0>        -0.7076
      9 C7         -2.3734   -0.3028    3.1812 C.2       1 <0>         0.5203
     10 O2         -2.2455    0.7404    3.7865 O.2       1 <0>        -0.5334
     11 C8         -3.6989   -1.0198    3.1872 C.3       1 <0>         0.1407
     12 C9         -4.2165   -1.1468    1.7530 C.3       1 <0>        -0.0385
     13 C10        -5.4790   -1.9697    1.7456 C.2       1 <0>         0.0078
     14 C11        -6.6653   -1.5943    1.2306 C.2       1 <0>        -0.0577
     15 N2         -7.5323   -2.6338    1.4344 N.pl3     1 <0>        -0.5711
     16 C12        -6.8450   -3.6089    2.0674 C.2       1 <0>         0.1940
     17 N3         -5.6165   -3.2066    2.2457 N.2       1 <0>        -0.4520
     18 N4         -4.6616   -0.2598    3.9883 N.am      1 <0>        -0.7068
     19 C13        -5.7083   -0.8884    4.5591 C.2       1 <0>         0.5104
     20 O3         -5.8532   -2.0832    4.4095 O.2       1 <0>        -0.4927
     21 C14        -6.6986   -0.1066    5.3832 C.3       1 <0>         0.1563
     22 C15        -7.3454    0.9736    4.5139 C.3       1 <0>        -0.0888
     23 C16        -8.2433    1.8331    5.3660 C.ar      1 <0>        -0.0534
     24 C17        -9.5737    1.5579    5.4517 C.ar      1 <0>        -0.1078
     25 C18       -10.4194    2.3413    6.2342 C.ar      1 <0>        -0.1119
     26 C19        -9.9398    3.4049    6.9355 C.ar      1 <0>        -0.1024
     27 C20        -8.5721    3.7199    6.8718 C.ar      1 <0>        -0.0433
     28 C21        -7.7107    2.9192    6.0806 C.ar      1 <0>        -0.0243
     29 C22        -6.3414    3.2309    6.0217 C.ar      1 <0>        -0.1108
     30 C23        -5.8612    4.2907    6.7275 C.ar      1 <0>        -0.1129
     31 C24        -6.7071    5.0741    7.5107 C.ar      1 <0>        -0.1189
     32 C25        -8.0404    4.8105    7.5814 C.ar      1 <0>        -0.1050
     33 N5         -7.7341   -1.0108    5.8896 N.am      1 <0>        -0.6912
     34 C26        -8.4129   -0.6973    7.0109 C.2       1 <0>         0.6493
     35 O4         -8.1661    0.3354    7.6018 O.2       1 <0>        -0.5483
     36 O5         -9.3646   -1.5282    7.4763 O.3       1 <0>        -0.3594
     37 C27       -10.0441   -1.1329    8.6696 C.3       1 <0>         0.1319
     38 C28       -11.0658   -2.1784    9.0357 C.ar      1 <0>        -0.0987
     39 C29       -12.3539   -2.0888    8.5420 C.ar      1 <0>        -0.0936
     40 C30       -13.2911   -3.0478    8.8779 C.ar      1 <0>        -0.1238
     41 C31       -12.9401   -4.0967    9.7071 C.ar      1 <0>        -0.1081
     42 C32       -11.6518   -4.1868   10.2000 C.ar      1 <0>        -0.1227
     43 C33       -10.7134   -3.2301    9.8607 C.ar      1 <0>        -0.0934
     44 H1          1.0039    1.9031    0.0027 H         1 <0>         0.0577
     45 H2         -0.5459    1.8868   -0.8726 H         1 <0>         0.0568
     46 H3         -0.5289    1.8773    0.9072 H         1 <0>         0.0569
     47 H4         -1.0205   -0.3814    0.0098 H         1 <0>         0.0736
     48 H5          1.7408   -0.1202   -1.2645 H         1 <0>         0.0567
     49 H6          0.7330   -1.5874   -1.2628 H         1 <0>         0.0557
     50 H7          0.1910   -0.1364   -2.1398 H         1 <0>         0.0573
     51 H8          0.8346   -1.5958    1.1912 H         1 <0>         0.0760
     52 H9          1.7350   -0.0630    1.2804 H         1 <0>         0.0900
     53 H10        -0.2110    0.9531    2.5022 H         1 <0>         0.1257
     54 H11         1.7281   -0.0960    3.8873 H         1 <0>         0.1040
     55 H12        -1.4324   -1.6550    2.0189 H         1 <0>         0.4071
     56 H13        -3.5725   -2.0134    3.6171 H         1 <0>         0.1267
     57 H14        -4.4272   -0.1547    1.3536 H         1 <0>         0.0822
     58 H15        -3.4616   -1.6341    1.1360 H         1 <0>         0.0864
     59 H16        -8.4659   -2.6644    1.1730 H         1 <0>         0.4169
     60 H17        -6.8897   -0.6538    0.7495 H         1 <0>         0.1671
     61 H18        -7.2449   -4.5648    2.3719 H         1 <0>         0.2003
     62 H19        -4.5457    0.6958    4.1080 H         1 <0>         0.4073
     63 H20        -6.1836    0.3620    6.2219 H         1 <0>         0.1179
     64 H21        -6.5683    1.5927    4.0656 H         1 <0>         0.0904
     65 H22        -7.9338    0.5023    3.7267 H         1 <0>         0.0831
     66 H23        -9.9799    0.7200    4.9045 H         1 <0>         0.1110
     67 H24       -11.4712    2.1013    6.2849 H         1 <0>         0.1165
     68 H25       -10.6073    4.0037    7.5375 H         1 <0>         0.1221
     69 H26        -5.6739    2.6323    5.4196 H         1 <0>         0.1203
     70 H27        -4.8086    4.5280    6.6804 H         1 <0>         0.1217
     71 H28        -6.3002    5.9093    8.0613 H         1 <0>         0.1209
     72 H29        -8.6840    5.4267    8.1917 H         1 <0>         0.1239
     73 H30        -7.9311   -1.8352    5.4179 H         1 <0>         0.4135
     74 H31        -9.3234   -1.0294    9.4808 H         1 <0>         0.0758
     75 H32       -10.5440   -0.1786    8.5039 H         1 <0>         0.0772
     76 H33       -12.6281   -1.2693    7.8942 H         1 <0>         0.1235
     77 H34       -14.2976   -2.9774    8.4927 H         1 <0>         0.1255
     78 H35       -13.6725   -4.8456    9.9700 H         1 <0>         0.1248
     79 H36       -11.3777   -5.0061   10.8481 H         1 <0>         0.1260
     80 H37        -9.7059   -3.3026   10.2429 H         1 <0>         0.1244
@<TRIPOS>BOND
     1    1    2 1
     2    1   44 1
     3    1   45 1
     4    1   46 1
     5    2    3 1
     6    2    4 1
     7    2   47 1
     8    3   48 1
     9    3   49 1
    10    3   50 1
    11    4    5 1
    12    4   51 1
    13    4   52 1
    14    5    6 1
    15    5    8 1
    16    5   53 1
    17    6    7 2
    18    6   54 1
    19    8    9 am
    20    8   55 1
    21    9   10 2
    22    9   11 1
    23   11   12 1
    24   11   18 1
    25   11   56 1
    26   12   57 1
    27   12   58 1
    28   12   13 1
    29   13   14 2
    30   13   17 1
    31   14   15 1
    32   14   60 1
    33   15   16 1
    34   15   59 1
    35   16   61 1
    36   16   17 2
    37   18   19 am
    38   18   62 1
    39   19   20 2
    40   19   21 1
    41   21   22 1
    42   21   33 1
    43   21   63 1
    44   22   23 1
    45   22   64 1
    46   22   65 1
    47   23   28 ar
    48   23   24 ar
    49   24   25 ar
    50   24   66 1
    51   25   26 ar
    52   25   67 1
    53   26   27 ar
    54   26   68 1
    55   27   32 ar
    56   27   28 ar
    57   28   29 ar
    58   29   30 ar
    59   29   69 1
    60   30   31 ar
    61   30   70 1
    62   31   32 ar
    63   31   71 1
    64   32   72 1
    65   33   34 am
    66   33   73 1
    67   34   35 2
    68   34   36 1
    69   36   37 1
    70   37   38 1
    71   37   74 1
    72   37   75 1
    73   38   43 ar
    74   38   39 ar
    75   39   40 ar
    76   39   76 1
    77   40   41 ar
    78   40   77 1
    79   41   42 ar
    80   41   78 1
    81   42   43 ar
    82   42   79 1
    83   43   80 1
@<TRIPOS>MOLECULE
CHEMBL75438__6
   81    84     0     0     0
SMALL
USER_CHARGES

@<TRIPOS>ATOM
      1 C1         -0.0187    1.5258    0.0104 C.3       1 <0>        -0.1560
      2 C2          0.0021   -0.0041    0.0020 C.3       1 <0>        -0.0922
      3 C3         -1.4333   -0.5336    0.0129 C.3       1 <0>        -0.1519
      4 C4          0.7182   -0.4975   -1.2568 C.3       1 <0>        -0.1197
      5 C5          2.1873   -0.0730   -1.2073 C.3       1 <0>         0.0735
      6 C6          2.8632   -0.4509   -2.5001 C.2       1 <0>         0.3339
      7 O1          3.8045   -1.2073   -2.4907 O.2       1 <0>        -0.4497
      8 N1          2.8538   -0.7497   -0.0918 N.am      1 <0>        -0.7035
      9 C7          3.9492   -0.2021    0.4709 C.2       1 <0>         0.5164
     10 O2          4.3832    0.8508    0.0538 O.2       1 <0>        -0.5157
     11 C8          4.6348   -0.8981    1.6183 C.3       1 <0>         0.1308
     12 C9          5.1037   -2.2831    1.1678 C.3       1 <0>        -0.0701
     13 C10         5.6789   -3.0265    2.3458 C.2       1 <0>         0.0406
     14 C11         4.9810   -3.7474    3.2440 C.2       1 <0>         0.0548
     15 N2          5.8870   -4.2495    4.1388 N.pl3     1 <0>        -0.4987
     16 C12         7.1079   -3.8175    3.7560 C.cat     1 <0>         0.3058
     17 N3          6.9762   -3.0908    2.6801 N.pl3     1 <0>        -0.4746
     18 N4          5.7905   -0.1074    2.0489 N.am      1 <0>        -0.7074
     19 C13         6.2514   -0.2195    3.3104 C.2       1 <0>         0.5166
     20 O3          5.7095   -0.9749    4.0892 O.2       1 <0>        -0.5317
     21 C14         7.4402    0.5939    3.7533 C.3       1 <0>         0.1510
     22 C15         8.6502    0.2431    2.8851 C.3       1 <0>        -0.0868
     23 C16         9.8046    1.1423    3.2454 C.ar      1 <0>        -0.0774
     24 C17        10.0308    2.2824    2.5369 C.ar      1 <0>        -0.0889
     25 C18        11.0931    3.1261    2.8552 C.ar      1 <0>        -0.1112
     26 C19        11.9358    2.8344    3.8837 C.ar      1 <0>        -0.0937
     27 C20        11.7340    1.6662    4.6378 C.ar      1 <0>        -0.0468
     28 C21        10.6497    0.8112    4.3179 C.ar      1 <0>        -0.0233
     29 C22        10.4444   -0.3543    5.0761 C.ar      1 <0>        -0.1293
     30 C23        11.2835   -0.6427    6.1081 C.ar      1 <0>        -0.0998
     31 C24        12.3458    0.2014    6.4267 C.ar      1 <0>        -0.1271
     32 C25        12.5833    1.3315    5.7065 C.ar      1 <0>        -0.0947
     33 N5          7.7419    0.2945    5.1553 N.am      1 <0>        -0.6996
     34 C26         8.3870    1.2021    5.9145 C.2       1 <0>         0.6556
     35 O4          8.7185    2.2688    5.4361 O.2       1 <0>        -0.5434
     36 O5          8.6642    0.9269    7.2029 O.3       1 <0>        -0.3532
     37 C27         9.3502    1.9347    7.9485 C.3       1 <0>         0.1338
     38 C28         9.5722    1.4524    9.3589 C.ar      1 <0>        -0.1005
     39 C29         8.6213    1.6993   10.3314 C.ar      1 <0>        -0.0945
     40 C30         8.8249    1.2570   11.6252 C.ar      1 <0>        -0.1218
     41 C31         9.9791    0.5674   11.9463 C.ar      1 <0>        -0.1049
     42 C32        10.9295    0.3197   10.9736 C.ar      1 <0>        -0.1232
     43 C33        10.7240    0.7583    9.6789 C.ar      1 <0>        -0.0932
     44 H1          1.0039    1.9031    0.0027 H         1 <0>         0.0549
     45 H2         -0.5459    1.8868   -0.8726 H         1 <0>         0.0615
     46 H3         -0.5289    1.8773    0.9072 H         1 <0>         0.0590
     47 H4          0.5293   -0.3651    0.8851 H         1 <0>         0.0689
     48 H5         -1.9605   -0.1726   -0.8702 H         1 <0>         0.0600
     49 H6         -1.4185   -1.6235    0.0069 H         1 <0>         0.0558
     50 H7         -1.9435   -0.1821    0.9097 H         1 <0>         0.0593
     51 H8          0.6556   -1.5845   -1.3079 H         1 <0>         0.0772
     52 H9          0.2444   -0.0644   -2.1377 H         1 <0>         0.0953
     53 H10         2.2492    1.0061   -1.0668 H         1 <0>         0.1296
     54 H11         2.5058   -0.0452   -3.4350 H         1 <0>         0.1110
     55 H12         2.5067   -1.5918    0.2417 H         1 <0>         0.4051
     56 H13         3.9367   -1.0033    2.4488 H         1 <0>         0.1302
     57 H14         4.2577   -2.8398    0.7648 H         1 <0>         0.1272
     58 H15         5.8678   -2.1754    0.3980 H         1 <0>         0.1099
     59 H16         5.6891   -4.8107    4.9048 H         1 <0>         0.4667
     60 H17         3.9119   -3.8999    3.2562 H         1 <0>         0.2232
     61 H18         8.0394   -4.0401    4.2552 H         1 <0>         0.2618
     62 H19         6.2239    0.4968    1.4260 H         1 <0>         0.4214
     63 H20         7.2136    1.6550    3.6490 H         1 <0>         0.1295
     64 H21         8.9316   -0.7959    3.0568 H         1 <0>         0.0722
     65 H22         8.3959    0.3817    1.8343 H         1 <0>         0.0927
     66 H23         9.3774    2.5367    1.7155 H         1 <0>         0.1202
     67 H24        11.2504    4.0246    2.2771 H         1 <0>         0.1243
     68 H25        12.7554    3.4973    4.1186 H         1 <0>         0.1266
     69 H26         9.6250   -1.0174    4.8413 H         1 <0>         0.1140
     70 H27        11.1235   -1.5389    6.6891 H         1 <0>         0.1186
     71 H28        12.9967   -0.0506    7.2509 H         1 <0>         0.1229
     72 H29        13.4109    1.9757    5.9645 H         1 <0>         0.1278
     73 H30         7.4772   -0.5570    5.5371 H         1 <0>         0.4083
     74 H31        10.3122    2.1418    7.4797 H         1 <0>         0.0778
     75 H32         8.7510    2.8450    7.9658 H         1 <0>         0.0748
     76 H33         7.7195    2.2380   10.0806 H         1 <0>         0.1230
     77 H34         8.0823    1.4504   12.3852 H         1 <0>         0.1269
     78 H35        10.1385    0.2224   12.9572 H         1 <0>         0.1264
     79 H36        11.8315   -0.2187   11.2245 H         1 <0>         0.1264
     80 H37        11.4649    0.5616    8.9181 H         1 <0>         0.1236
     81 H38         7.7019   -2.6630    2.1991 H         1 <0>         0.4579
@<TRIPOS>BOND
     1    1    2 1
     2    1   44 1
     3    1   45 1
     4    1   46 1
     5    2    3 1
     6    2    4 1
     7    2   47 1
     8    3   48 1
     9    3   49 1
    10    3   50 1
    11    4    5 1
    12    4   51 1
    13    4   52 1
    14    5    6 1
    15    5    8 1
    16    5   53 1
    17    6    7 2
    18    6   54 1
    19    8    9 am
    20    8   55 1
    21    9   10 2
    22    9   11 1
    23   11   12 1
    24   11   18 1
    25   11   56 1
    26   12   57 1
    27   12   58 1
    28   12   13 1
    29   13   14 2
    30   13   17 1
    31   14   15 1
    32   14   60 1
    33   15   16 1
    34   15   59 1
    35   16   61 1
    36   16   17 2
    37   17   81 1
    38   18   19 am
    39   18   62 1
    40   19   20 2
    41   19   21 1
    42   21   22 1
    43   21   33 1
    44   21   63 1
    45   22   23 1
    46   22   64 1
    47   22   65 1
    48   23   28 ar
    49   23   24 ar
    50   24   25 ar
    51   24   66 1
    52   25   26 ar
    53   25   67 1
    54   26   27 ar
    55   26   68 1
    56   27   32 ar
    57   27   28 ar
    58   28   29 ar
    59   29   30 ar
    60   29   69 1
    61   30   31 ar
    62   30   70 1
    63   31   32 ar
    64   31   71 1
    65   32   72 1
    66   33   34 am
    67   33   73 1
    68   34   35 2
    69   34   36 1
    70   36   37 1
    71   37   38 1
    72   37   74 1
    73   37   75 1
    74   38   43 ar
    75   38   39 ar
    76   39   40 ar
    77   39   76 1
    78   40   41 ar
    79   40   77 1
    80   41   42 ar
    81   41   78 1
    82   42   43 ar
    83   42   79 1
    84   43   80 1
@<TRIPOS>MOLECULE
CHEMBL75438__7
   80    83     0     0     0
SMALL
USER_CHARGES

@<TRIPOS>ATOM
      1 C1         -0.0187    1.5258    0.0104 C.3       1 <0>        -0.1537
      2 C2          0.0021   -0.0041    0.0020 C.3       1 <0>        -0.0949
      3 C3          0.7182   -0.4975   -1.2568 C.3       1 <0>        -0.1497
      4 C4          0.7421   -0.5109    1.2415 C.3       1 <0>        -0.1178
      5 C5         -0.0416   -0.1236    2.4973 C.3       1 <0>         0.0746
      6 C6          0.7462   -0.5138    3.7213 C.2       1 <0>         0.3298
      7 O1          0.2794   -1.2937    4.5164 O.2       1 <0>        -0.4441
      8 N1         -1.3301   -0.8207    2.5031 N.am      1 <0>        -0.7068
      9 C7         -2.3734   -0.3028    3.1812 C.2       1 <0>         0.5203
     10 O2         -2.2455    0.7404    3.7865 O.2       1 <0>        -0.5298
     11 C8         -3.6989   -1.0198    3.1872 C.3       1 <0>         0.1366
     12 C9         -3.5215   -2.4145    3.7907 C.3       1 <0>        -0.0484
     13 C10        -4.8175   -3.1762    3.6849 C.2       1 <0>        -0.0159
     14 C11        -5.2470   -3.8863    2.6243 C.2       1 <0>        -0.0005
     15 N2         -6.4432   -4.4093    2.9321 N.2       1 <0>        -0.4835
     16 C12        -6.7712   -4.0503    4.1430 C.2       1 <0>         0.1900
     17 N3         -5.7817   -3.2841    4.6505 N.pl3     1 <0>        -0.5642
     18 N4         -4.6616   -0.2598    3.9883 N.am      1 <0>        -0.7097
     19 C13        -5.9827   -0.3878    3.7545 C.2       1 <0>         0.5097
     20 O3         -6.3746   -1.1322    2.8808 O.2       1 <0>        -0.4984
     21 C14        -6.9730    0.3939    4.5786 C.3       1 <0>         0.1569
     22 C15        -6.8203    0.0159    6.0533 C.3       1 <0>        -0.0905
     23 C16        -7.7233    0.8845    6.8907 C.ar      1 <0>        -0.0622
     24 C17        -7.2405    2.0211    7.4635 C.ar      1 <0>        -0.0987
     25 C18        -8.0601    2.8367    8.2409 C.ar      1 <0>        -0.1091
     26 C19        -9.3674    2.5204    8.4505 C.ar      1 <0>        -0.1027
     27 C20        -9.9015    1.3550    7.8755 C.ar      1 <0>        -0.0454
     28 C21        -9.0693    0.5286    7.0794 C.ar      1 <0>        -0.0247
     29 C22        -9.6052   -0.6341    6.4994 C.ar      1 <0>        -0.1196
     30 C23       -10.9137   -0.9470    6.7042 C.ar      1 <0>        -0.1055
     31 C24       -11.7337   -0.1309    7.4815 C.ar      1 <0>        -0.1238
     32 C25       -11.2462    0.9954    8.0698 C.ar      1 <0>        -0.1036
     33 N5         -8.3333    0.0821    4.1329 N.am      1 <0>        -0.6952
     34 C26        -9.3273    0.9706    4.3300 C.2       1 <0>         0.6564
     35 O4         -9.0953    2.0303    4.8775 O.2       1 <0>        -0.5530
     36 O5        -10.5774    0.6840    3.9204 O.3       1 <0>        -0.3526
     37 C27       -11.5816    1.6716    4.1617 C.3       1 <0>         0.1331
     38 C28       -12.9065    1.1790    3.6391 C.ar      1 <0>        -0.0966
     39 C29       -13.2774    1.4463    2.3345 C.ar      1 <0>        -0.0942
     40 C30       -14.4927    0.9945    1.8551 C.ar      1 <0>        -0.1229
     41 C31       -15.3369    0.2750    2.6801 C.ar      1 <0>        -0.1079
     42 C32       -14.9656    0.0070    3.9844 C.ar      1 <0>        -0.1240
     43 C33       -13.7484    0.4551    4.4626 C.ar      1 <0>        -0.0924
     44 H1          1.0039    1.9031    0.0027 H         1 <0>         0.0584
     45 H2         -0.5459    1.8868   -0.8726 H         1 <0>         0.0574
     46 H3         -0.5289    1.8773    0.9072 H         1 <0>         0.0559
     47 H4         -1.0205   -0.3814    0.0098 H         1 <0>         0.0729
     48 H5          1.7408   -0.1202   -1.2645 H         1 <0>         0.0571
     49 H6          0.7330   -1.5874   -1.2628 H         1 <0>         0.0562
     50 H7          0.1910   -0.1364   -2.1398 H         1 <0>         0.0579
     51 H8          0.8346   -1.5958    1.1912 H         1 <0>         0.0767
     52 H9          1.7350   -0.0630    1.2804 H         1 <0>         0.0910
     53 H10        -0.2110    0.9531    2.5022 H         1 <0>         0.1260
     54 H11         1.7281   -0.0960    3.8873 H         1 <0>         0.1054
     55 H12        -1.4324   -1.6550    2.0189 H         1 <0>         0.4069
     56 H13        -4.0677   -1.1103    2.1654 H         1 <0>         0.1231
     57 H14        -2.7410   -2.9484    3.2486 H         1 <0>         0.1008
     58 H15        -3.2382   -2.3233    4.8393 H         1 <0>         0.0817
     59 H16        -5.7592   -2.8837    5.5337 H         1 <0>         0.4105
     60 H17        -4.7206   -4.0125    1.6898 H         1 <0>         0.1611
     61 H18        -7.6816   -4.3235    4.6557 H         1 <0>         0.2002
     62 H19        -4.3482    0.3355    4.6871 H         1 <0>         0.4114
     63 H20        -6.7860    1.4607    4.4558 H         1 <0>         0.1209
     64 H21        -7.0935   -1.0304    6.1903 H         1 <0>         0.0794
     65 H22        -5.7853    0.1645    6.3612 H         1 <0>         0.0905
     66 H23        -6.2065    2.2946    7.3135 H         1 <0>         0.1189
     67 H24        -7.6520    3.7330    8.6841 H         1 <0>         0.1205
     68 H25        -9.9907    3.1617    9.0560 H         1 <0>         0.1226
     69 H26        -8.9819   -1.2756    5.8941 H         1 <0>         0.1216
     70 H27       -11.3229   -1.8410    6.2573 H         1 <0>         0.1197
     71 H28       -12.7688   -0.4021    7.6279 H         1 <0>         0.1202
     72 H29       -11.8932    1.6177    8.6702 H         1 <0>         0.1241
     73 H30        -8.5185   -0.7638    3.6958 H         1 <0>         0.4148
     74 H31       -11.6596    1.8562    5.2331 H         1 <0>         0.0764
     75 H32       -11.3114    2.5966    3.6524 H         1 <0>         0.0725
     76 H33       -12.6179    2.0084    1.6900 H         1 <0>         0.1231
     77 H34       -14.7828    1.2038    0.8361 H         1 <0>         0.1253
     78 H35       -16.2867   -0.0774    2.3058 H         1 <0>         0.1243
     79 H36       -15.6252   -0.5548    4.6291 H         1 <0>         0.1250
     80 H37       -13.4567    0.2425    5.4804 H         1 <0>         0.1242
@<TRIPOS>BOND
     1    1    2 1
     2    1   44 1
     3    1   45 1
     4    1   46 1
     5    2    3 1
     6    2    4 1
     7    2   47 1
     8    3   48 1
     9    3   49 1
    10    3   50 1
    11    4    5 1
    12    4   51 1
    13    4   52 1
    14    5    6 1
    15    5    8 1
    16    5   53 1
    17    6    7 2
    18    6   54 1
    19    8    9 am
    20    8   55 1
    21    9   10 2
    22    9   11 1
    23   11   12 1
    24   11   18 1
    25   11   56 1
    26   12   57 1
    27   12   58 1
    28   12   13 1
    29   13   14 2
    30   13   17 1
    31   14   15 1
    32   14   60 1
    33   15   16 2
    34   16   61 1
    35   16   17 1
    36   17   59 1
    37   18   19 am
    38   18   62 1
    39   19   20 2
    40   19   21 1
    41   21   22 1
    42   21   33 1
    43   21   63 1
    44   22   23 1
    45   22   64 1
    46   22   65 1
    47   23   28 ar
    48   23   24 ar
    49   24   25 ar
    50   24   66 1
    51   25   26 ar
    52   25   67 1
    53   26   27 ar
    54   26   68 1
    55   27   32 ar
    56   27   28 ar
    57   28   29 ar
    58   29   30 ar
    59   29   69 1
    60   30   31 ar
    61   30   70 1
    62   31   32 ar
    63   31   71 1
    64   32   72 1
    65   33   34 am
    66   33   73 1
    67   34   35 2
    68   34   36 1
    69   36   37 1
    70   37   38 1
    71   37   74 1
    72   37   75 1
    73   38   43 ar
    74   38   39 ar
    75   39   40 ar
    76   39   76 1
    77   40   41 ar
    78   40   77 1
    79   41   42 ar
    80   41   78 1
    81   42   43 ar
    82   42   79 1
    83   43   80 1
@<TRIPOS>MOLECULE
CHEMBL75438__8
   80    83     0     0     0
SMALL
USER_CHARGES

@<TRIPOS>ATOM
      1 C1         -0.0187    1.5258    0.0104 C.3       1 <0>        -0.1537
      2 C2          0.0021   -0.0041    0.0020 C.3       1 <0>        -0.0949
      3 C3          0.7182   -0.4975   -1.2568 C.3       1 <0>        -0.1493
      4 C4          0.7421   -0.5109    1.2415 C.3       1 <0>        -0.1172
      5 C5         -0.0416   -0.1236    2.4973 C.3       1 <0>         0.0748
      6 C6          0.7462   -0.5138    3.7213 C.2       1 <0>         0.3287
      7 O1          0.2794   -1.2937    4.5164 O.2       1 <0>        -0.4424
      8 N1         -1.3301   -0.8207    2.5031 N.am      1 <0>        -0.7093
      9 C7         -2.3734   -0.3028    3.1812 C.2       1 <0>         0.5189
     10 O2         -2.2455    0.7404    3.7865 O.2       1 <0>        -0.5303
     11 C8         -3.6989   -1.0198    3.1872 C.3       1 <0>         0.1460
     12 C9         -3.5215   -2.4145    3.7907 C.3       1 <0>        -0.0382
     13 C10        -4.8175   -3.1762    3.6849 C.2       1 <0>         0.0053
     14 C11        -4.9819   -4.3822    3.1087 C.2       1 <0>        -0.0509
     15 N2         -6.3066   -4.7035    3.2334 N.pl3     1 <0>        -0.5697
     16 C12        -6.9061   -3.6819    3.8820 C.2       1 <0>         0.1857
     17 N3         -6.0084   -2.7743    4.1532 N.2       1 <0>        -0.4522
     18 N4         -4.6616   -0.2598    3.9883 N.am      1 <0>        -0.7082
     19 C13        -5.9827   -0.3878    3.7545 C.2       1 <0>         0.5455
     20 O3         -6.3746   -1.1322    2.8808 O.2       1 <0>        -0.5099
     21 C14        -6.9730    0.3939    4.5786 C.3       1 <0>         0.1644
     22 C15        -6.8203    0.0159    6.0533 C.3       1 <0>        -0.0858
     23 C16        -7.7233    0.8845    6.8907 C.ar      1 <0>        -0.0556
     24 C17        -7.2405    2.0211    7.4635 C.ar      1 <0>        -0.1048
     25 C18        -8.0601    2.8367    8.2409 C.ar      1 <0>        -0.1066
     26 C19        -9.3674    2.5204    8.4505 C.ar      1 <0>        -0.1091
     27 C20        -9.9015    1.3550    7.8755 C.ar      1 <0>        -0.0447
     28 C21        -9.0693    0.5286    7.0794 C.ar      1 <0>        -0.0260
     29 C22        -9.6052   -0.6341    6.4994 C.ar      1 <0>        -0.1134
     30 C23       -10.9137   -0.9470    6.7042 C.ar      1 <0>        -0.1119
     31 C24       -11.7337   -0.1309    7.4815 C.ar      1 <0>        -0.1244
     32 C25       -11.2462    0.9954    8.0698 C.ar      1 <0>        -0.1066
     33 N5         -8.3333    0.0821    4.1329 N.am      1 <0>        -0.6906
     34 C26        -9.3273    0.9706    4.3300 C.2       1 <0>         0.6535
     35 O4         -9.0953    2.0303    4.8775 O.2       1 <0>        -0.5548
     36 O5        -10.5774    0.6840    3.9204 O.3       1 <0>        -0.3555
     37 C27       -11.5816    1.6716    4.1617 C.3       1 <0>         0.1329
     38 C28       -12.9065    1.1790    3.6391 C.ar      1 <0>        -0.0946
     39 C29       -13.2774    1.4463    2.3345 C.ar      1 <0>        -0.0949
     40 C30       -14.4927    0.9945    1.8551 C.ar      1 <0>        -0.1236
     41 C31       -15.3369    0.2750    2.6801 C.ar      1 <0>        -0.1094
     42 C32       -14.9656    0.0070    3.9844 C.ar      1 <0>        -0.1243
     43 C33       -13.7484    0.4551    4.4626 C.ar      1 <0>        -0.0924
     44 H1          1.0039    1.9031    0.0027 H         1 <0>         0.0582
     45 H2         -0.5459    1.8868   -0.8726 H         1 <0>         0.0569
     46 H3         -0.5289    1.8773    0.9072 H         1 <0>         0.0569
     47 H4         -1.0205   -0.3814    0.0098 H         1 <0>         0.0727
     48 H5          1.7408   -0.1202   -1.2645 H         1 <0>         0.0570
     49 H6          0.7330   -1.5874   -1.2628 H         1 <0>         0.0553
     50 H7          0.1910   -0.1364   -2.1398 H         1 <0>         0.0573
     51 H8          0.8346   -1.5958    1.1912 H         1 <0>         0.0756
     52 H9          1.7350   -0.0630    1.2804 H         1 <0>         0.0901
     53 H10        -0.2110    0.9531    2.5022 H         1 <0>         0.1253
     54 H11         1.7281   -0.0960    3.8873 H         1 <0>         0.1040
     55 H12        -1.4324   -1.6550    2.0189 H         1 <0>         0.4051
     56 H13        -4.0677   -1.1103    2.1654 H         1 <0>         0.1132
     57 H14        -2.7410   -2.9484    3.2486 H         1 <0>         0.0843
     58 H15        -3.2382   -2.3233    4.8393 H         1 <0>         0.0842
     59 H16        -6.7348   -5.5137    2.9154 H         1 <0>         0.4176
     60 H17        -4.2158   -4.9807    2.6382 H         1 <0>         0.1690
     61 H18        -7.9540   -3.6269    4.1375 H         1 <0>         0.1966
     62 H19        -4.3482    0.3355    4.6871 H         1 <0>         0.4073
     63 H20        -6.7860    1.4607    4.4558 H         1 <0>         0.1113
     64 H21        -7.0935   -1.0304    6.1903 H         1 <0>         0.0925
     65 H22        -5.7853    0.1645    6.3612 H         1 <0>         0.0871
     66 H23        -6.2065    2.2946    7.3135 H         1 <0>         0.1185
     67 H24        -7.6520    3.7330    8.6841 H         1 <0>         0.1186
     68 H25        -9.9907    3.1617    9.0560 H         1 <0>         0.1206
     69 H26        -8.9819   -1.2756    5.8941 H         1 <0>         0.1262
     70 H27       -11.3229   -1.8410    6.2573 H         1 <0>         0.1171
     71 H28       -12.7688   -0.4021    7.6279 H         1 <0>         0.1178
     72 H29       -11.8932    1.6177    8.6702 H         1 <0>         0.1222
     73 H30        -8.5185   -0.7638    3.6958 H         1 <0>         0.4126
     74 H31       -11.6596    1.8562    5.2331 H         1 <0>         0.0764
     75 H32       -11.3114    2.5966    3.6524 H         1 <0>         0.0718
     76 H33       -12.6179    2.0084    1.6900 H         1 <0>         0.1230
     77 H34       -14.7828    1.2038    0.8361 H         1 <0>         0.1246
     78 H35       -16.2867   -0.0774    2.3058 H         1 <0>         0.1236
     79 H36       -15.6252   -0.5548    4.6291 H         1 <0>         0.1245
     80 H37       -13.4567    0.2425    5.4804 H         1 <0>         0.1250
@<TRIPOS>BOND
     1    1    2 1
     2    1   44 1
     3    1   45 1
     4    1   46 1
     5    2    3 1
     6    2    4 1
     7    2   47 1
     8    3   48 1
     9    3   49 1
    10    3   50 1
    11    4    5 1
    12    4   51 1
    13    4   52 1
    14    5    6 1
    15    5    8 1
    16    5   53 1
    17    6    7 2
    18    6   54 1
    19    8    9 am
    20    8   55 1
    21    9   10 2
    22    9   11 1
    23   11   12 1
    24   11   18 1
    25   11   56 1
    26   12   57 1
    27   12   58 1
    28   12   13 1
    29   13   14 2
    30   13   17 1
    31   14   15 1
    32   14   60 1
    33   15   16 1
    34   15   59 1
    35   16   61 1
    36   16   17 2
    37   18   19 am
    38   18   62 1
    39   19   20 2
    40   19   21 1
    41   21   22 1
    42   21   33 1
    43   21   63 1
    44   22   23 1
    45   22   64 1
    46   22   65 1
    47   23   28 ar
    48   23   24 ar
    49   24   25 ar
    50   24   66 1
    51   25   26 ar
    52   25   67 1
    53   26   27 ar
    54   26   68 1
    55   27   32 ar
    56   27   28 ar
    57   28   29 ar
    58   29   30 ar
    59   29   69 1
    60   30   31 ar
    61   30   70 1
    62   31   32 ar
    63   31   71 1
    64   32   72 1
    65   33   34 am
    66   33   73 1
    67   34   35 2
    68   34   36 1
    69   36   37 1
    70   37   38 1
    71   37   74 1
    72   37   75 1
    73   38   43 ar
    74   38   39 ar
    75   39   40 ar
    76   39   76 1
    77   40   41 ar
    78   40   77 1
    79   41   42 ar
    80   41   78 1
    81   42   43 ar
    82   42   79 1
    83   43   80 1
@<TRIPOS>MOLECULE
CHEMBL75438__9
   81    84     0     0     0
SMALL
USER_CHARGES

@<TRIPOS>ATOM
      1 C1         -0.0187    1.5258    0.0104 C.3       1 <0>        -0.1559
      2 C2          0.0021   -0.0041    0.0020 C.3       1 <0>        -0.0920
      3 C3         -1.4333   -0.5336    0.0129 C.3       1 <0>        -0.1520
      4 C4          0.7182   -0.4975   -1.2568 C.3       1 <0>        -0.1198
      5 C5          2.1873   -0.0730   -1.2073 C.3       1 <0>         0.0738
      6 C6          2.8632   -0.4509   -2.5001 C.2       1 <0>         0.3337
      7 O1          3.8045   -1.2073   -2.4907 O.2       1 <0>        -0.4495
      8 N1          2.8538   -0.7497   -0.0918 N.am      1 <0>        -0.7034
      9 C7          3.9492   -0.2021    0.4709 C.2       1 <0>         0.5165
     10 O2          4.3832    0.8508    0.0538 O.2       1 <0>        -0.5154
     11 C8          4.6348   -0.8981    1.6183 C.3       1 <0>         0.1309
     12 C9          5.1037   -2.2831    1.1678 C.3       1 <0>        -0.0702
     13 C10         5.6789   -3.0265    2.3458 C.2       1 <0>         0.0391
     14 C11         4.9810   -3.7474    3.2440 C.2       1 <0>         0.0536
     15 N2          5.8870   -4.2495    4.1388 N.pl3     1 <0>        -0.5002
     16 C12         7.1079   -3.8175    3.7560 C.cat     1 <0>         0.3112
     17 N3          6.9762   -3.0908    2.6801 N.pl3     1 <0>        -0.4736
     18 N4          5.7905   -0.1074    2.0489 N.am      1 <0>        -0.7078
     19 C13         6.2514   -0.2195    3.3104 C.2       1 <0>         0.5157
     20 O3          5.7095   -0.9749    4.0892 O.2       1 <0>        -0.5311
     21 C14         7.4402    0.5939    3.7533 C.3       1 <0>         0.1540
     22 C15         7.1222    2.0833    3.6069 C.3       1 <0>        -0.0927
     23 C16         8.3504    2.8936    3.9323 C.ar      1 <0>        -0.0657
     24 C17         8.5333    3.3843    5.1888 C.ar      1 <0>        -0.1010
     25 C18         9.6624    4.1355    5.5084 C.ar      1 <0>        -0.1145
     26 C19        10.6153    4.4009    4.5732 C.ar      1 <0>        -0.0944
     27 C20        10.4613    3.9112    3.2654 C.ar      1 <0>        -0.0446
     28 C21         9.3156    3.1417    2.9419 C.ar      1 <0>        -0.0228
     29 C22         9.1645    2.6469    1.6351 C.ar      1 <0>        -0.1201
     30 C23        10.1202    2.9073    0.7019 C.ar      1 <0>        -0.1078
     31 C24        11.2499    3.6584    1.0216 C.ar      1 <0>        -0.1208
     32 C25        11.4235    4.1650    2.2728 C.ar      1 <0>        -0.0979
     33 N5          7.7419    0.2945    5.1553 N.am      1 <0>        -0.6994
     34 C26         8.9904    0.4755    5.6295 C.2       1 <0>         0.6466
     35 O4          9.8659    0.8870    4.8942 O.2       1 <0>        -0.5405
     36 O5          9.2676    0.2003    6.9179 O.3       1 <0>        -0.3579
     37 C27        10.6118    0.4154    7.3526 C.3       1 <0>         0.1335
     38 C28        10.7316    0.0561    8.8112 C.ar      1 <0>        -0.1045
     39 C29        10.5040    1.0152    9.7803 C.ar      1 <0>        -0.0920
     40 C30        10.6140    0.6857   11.1182 C.ar      1 <0>        -0.1205
     41 C31        10.9511   -0.6032   11.4872 C.ar      1 <0>        -0.1039
     42 C32        11.1778   -1.5626   10.5181 C.ar      1 <0>        -0.1231
     43 C33        11.0637   -1.2341    9.1802 C.ar      1 <0>        -0.0957
     44 H1          1.0039    1.9031    0.0027 H         1 <0>         0.0550
     45 H2         -0.5459    1.8868   -0.8726 H         1 <0>         0.0614
     46 H3         -0.5289    1.8773    0.9072 H         1 <0>         0.0589
     47 H4          0.5293   -0.3651    0.8851 H         1 <0>         0.0690
     48 H5         -1.9605   -0.1726   -0.8702 H         1 <0>         0.0600
     49 H6         -1.4185   -1.6235    0.0069 H         1 <0>         0.0557
     50 H7         -1.9435   -0.1821    0.9097 H         1 <0>         0.0593
     51 H8          0.6556   -1.5845   -1.3079 H         1 <0>         0.0771
     52 H9          0.2444   -0.0644   -2.1377 H         1 <0>         0.0952
     53 H10         2.2492    1.0061   -1.0668 H         1 <0>         0.1297
     54 H11         2.5058   -0.0452   -3.4350 H         1 <0>         0.1109
     55 H12         2.5067   -1.5918    0.2417 H         1 <0>         0.4051
     56 H13         3.9367   -1.0033    2.4488 H         1 <0>         0.1307
     57 H14         4.2577   -2.8398    0.7648 H         1 <0>         0.1270
     58 H15         5.8678   -2.1754    0.3980 H         1 <0>         0.1094
     59 H16         5.6891   -4.8107    4.9048 H         1 <0>         0.4663
     60 H17         3.9119   -3.8999    3.2562 H         1 <0>         0.2230
     61 H18         8.0394   -4.0401    4.2552 H         1 <0>         0.2606
     62 H19         6.2239    0.4968    1.4260 H         1 <0>         0.4204
     63 H20         8.3023    0.3440    3.1348 H         1 <0>         0.1222
     64 H21         6.8117    2.2896    2.5826 H         1 <0>         0.0938
     65 H22         6.3177    2.3521    4.2915 H         1 <0>         0.0880
     66 H23         7.7918    3.1888    5.9493 H         1 <0>         0.1127
     67 H24         9.7832    4.5132    6.5129 H         1 <0>         0.1199
     68 H25        11.4850    4.9852    4.8351 H         1 <0>         0.1256
     69 H26         8.2948    2.0628    1.3730 H         1 <0>         0.1150
     70 H27        10.0016    2.5258   -0.3016 H         1 <0>         0.1214
     71 H28        11.9935    3.8502    0.2623 H         1 <0>         0.1236
     72 H29        12.3036    4.7460    2.5059 H         1 <0>         0.1272
     73 H30         7.0430   -0.0340    5.7422 H         1 <0>         0.4143
     74 H31        11.2871   -0.2093    6.7678 H         1 <0>         0.0764
     75 H32        10.8751    1.4639    7.2139 H         1 <0>         0.0799
     76 H33        10.2406    2.0222    9.4920 H         1 <0>         0.1246
     77 H34        10.4368    1.4352   11.8753 H         1 <0>         0.1283
     78 H35        11.0377   -0.8605   12.5325 H         1 <0>         0.1274
     79 H36        11.4415   -2.5695   10.8063 H         1 <0>         0.1267
     80 H37        11.2372   -1.9846    8.4232 H         1 <0>         0.1215
     81 H38         7.7019   -2.6630    2.1991 H         1 <0>         0.4589
@<TRIPOS>BOND
     1    1    2 1
     2    1   44 1
     3    1   45 1
     4    1   46 1
     5    2    3 1
     6    2    4 1
     7    2   47 1
     8    3   48 1
     9    3   49 1
    10    3   50 1
    11    4    5 1
    12    4   51 1
    13    4   52 1
    14    5    6 1
    15    5    8 1
    16    5   53 1
    17    6    7 2
    18    6   54 1
    19    8    9 am
    20    8   55 1
    21    9   10 2
    22    9   11 1
    23   11   12 1
    24   11   18 1
    25   11   56 1
    26   12   57 1
    27   12   58 1
    28   12   13 1
    29   13   14 2
    30   13   17 1
    31   14   15 1
    32   14   60 1
    33   15   16 1
    34   15   59 1
    35   16   61 1
    36   16   17 2
    37   17   81 1
    38   18   19 am
    39   18   62 1
    40   19   20 2
    41   19   21 1
    42   21   22 1
    43   21   33 1
    44   21   63 1
    45   22   23 1
    46   22   64 1
    47   22   65 1
    48   23   28 ar
    49   23   24 ar
    50   24   25 ar
    51   24   66 1
    52   25   26 ar
    53   25   67 1
    54   26   27 ar
    55   26   68 1
    56   27   32 ar
    57   27   28 ar
    58   28   29 ar
    59   29   30 ar
    60   29   69 1
    61   30   31 ar
    62   30   70 1
    63   31   32 ar
    64   31   71 1
    65   32   72 1
    66   33   34 am
    67   33   73 1
    68   34   35 2
    69   34   36 1
    70   36   37 1
    71   37   38 1
    72   37   74 1
    73   37   75 1
    74   38   43 ar
    75   38   39 ar
    76   39   40 ar
    77   39   76 1
    78   40   41 ar
    79   40   77 1
    80   41   42 ar
    81   41   78 1
    82   42   43 ar
    83   42   79 1
    84   43   80 1
@<TRIPOS>MOLECULE
CHEMBL75438__10
   80    83     0     0     0
SMALL
USER_CHARGES

@<TRIPOS>ATOM
      1 C1         -0.0187    1.5258    0.0104 C.3       1 <0>        -0.1536
      2 C2          0.0021   -0.0041    0.0020 C.3       1 <0>        -0.0948
      3 C3          0.7182   -0.4975   -1.2568 C.3       1 <0>        -0.1498
      4 C4          0.7421   -0.5109    1.2415 C.3       1 <0>        -0.1180
      5 C5         -0.0416   -0.1236    2.4973 C.3       1 <0>         0.0748
      6 C6          0.7462   -0.5138    3.7213 C.2       1 <0>         0.3295
      7 O1          0.2794   -1.2937    4.5164 O.2       1 <0>        -0.4439
      8 N1         -1.3301   -0.8207    2.5031 N.am      1 <0>        -0.7067
      9 C7         -2.3734   -0.3028    3.1812 C.2       1 <0>         0.5205
     10 O2         -2.2455    0.7404    3.7865 O.2       1 <0>        -0.5295
     11 C8         -3.6989   -1.0198    3.1872 C.3       1 <0>         0.1366
     12 C9         -3.5215   -2.4145    3.7907 C.3       1 <0>        -0.0485
     13 C10        -4.8175   -3.1762    3.6849 C.2       1 <0>        -0.0182
     14 C11        -5.2470   -3.8863    2.6243 C.2       1 <0>        -0.0009
     15 N2         -6.4432   -4.4093    2.9321 N.2       1 <0>        -0.4853
     16 C12        -6.7712   -4.0503    4.1430 C.2       1 <0>         0.1943
     17 N3         -5.7817   -3.2841    4.6505 N.pl3     1 <0>        -0.5632
     18 N4         -4.6616   -0.2598    3.9883 N.am      1 <0>        -0.7100
     19 C13        -5.9827   -0.3878    3.7545 C.2       1 <0>         0.5094
     20 O3         -6.3746   -1.1322    2.8808 O.2       1 <0>        -0.4976
     21 C14        -6.9730    0.3939    4.5786 C.3       1 <0>         0.1583
     22 C15        -6.7105    1.8913    4.4062 C.3       1 <0>        -0.0941
     23 C16        -7.6187    2.6694    5.3232 C.ar      1 <0>        -0.0548
     24 C17        -8.8059    3.1510    4.8631 C.ar      1 <0>        -0.1061
     25 C18        -9.6586    3.8725    5.6960 C.ar      1 <0>        -0.1108
     26 C19        -9.3291    4.1171    6.9939 C.ar      1 <0>        -0.1020
     27 C20        -8.1118    3.6360    7.5046 C.ar      1 <0>        -0.0434
     28 C21        -7.2472    2.8966    6.6590 C.ar      1 <0>        -0.0236
     29 C22        -6.0322    2.4103    7.1716 C.ar      1 <0>        -0.1122
     30 C23        -5.7056    2.6499    8.4708 C.ar      1 <0>        -0.1133
     31 C24        -6.5588    3.3713    9.3041 C.ar      1 <0>        -0.1201
     32 C25        -7.7371    3.8690    8.8390 C.ar      1 <0>        -0.1031
     33 N5         -8.3333    0.0821    4.1329 N.am      1 <0>        -0.6926
     34 C26        -9.3707    0.2300    4.9804 C.2       1 <0>         0.6502
     35 O4         -9.1778    0.6220    6.1143 O.2       1 <0>        -0.5495
     36 O5        -10.6208   -0.0565    4.5707 O.3       1 <0>        -0.3573
     37 C27       -11.6723    0.1232    5.5216 C.3       1 <0>         0.1327
     38 C28       -12.9898   -0.2441    4.8889 C.ar      1 <0>        -0.0999
     39 C29       -13.7303    0.7171    4.2265 C.ar      1 <0>        -0.0932
     40 C30       -14.9388    0.3802    3.6462 C.ar      1 <0>        -0.1234
     41 C31       -15.4067   -0.9180    3.7279 C.ar      1 <0>        -0.1074
     42 C32       -14.6658   -1.8794    4.3895 C.ar      1 <0>        -0.1227
     43 C33       -13.4553   -1.5434    4.9661 C.ar      1 <0>        -0.0932
     44 H1          1.0039    1.9031    0.0027 H         1 <0>         0.0583
     45 H2         -0.5459    1.8868   -0.8726 H         1 <0>         0.0574
     46 H3         -0.5289    1.8773    0.9072 H         1 <0>         0.0560
     47 H4         -1.0205   -0.3814    0.0098 H         1 <0>         0.0730
     48 H5          1.7408   -0.1202   -1.2645 H         1 <0>         0.0570
     49 H6          0.7330   -1.5874   -1.2628 H         1 <0>         0.0561
     50 H7          0.1910   -0.1364   -2.1398 H         1 <0>         0.0579
     51 H8          0.8346   -1.5958    1.1912 H         1 <0>         0.0767
     52 H9          1.7350   -0.0630    1.2804 H         1 <0>         0.0909
     53 H10        -0.2110    0.9531    2.5022 H         1 <0>         0.1262
     54 H11         1.7281   -0.0960    3.8873 H         1 <0>         0.1053
     55 H12        -1.4324   -1.6550    2.0189 H         1 <0>         0.4069
     56 H13        -4.0677   -1.1103    2.1654 H         1 <0>         0.1237
     57 H14        -2.7410   -2.9484    3.2486 H         1 <0>         0.1008
     58 H15        -3.2382   -2.3233    4.8393 H         1 <0>         0.0813
     59 H16        -5.7592   -2.8837    5.5337 H         1 <0>         0.4114
     60 H17        -4.7206   -4.0125    1.6898 H         1 <0>         0.1612
     61 H18        -7.6816   -4.3235    4.6557 H         1 <0>         0.1989
     62 H19        -4.3482    0.3355    4.6871 H         1 <0>         0.4103
     63 H20        -6.8642    0.1246    5.6292 H         1 <0>         0.1165
     64 H21        -5.6715    2.1089    4.6536 H         1 <0>         0.0928
     65 H22        -6.9056    2.1778    3.3728 H         1 <0>         0.0868
     66 H23        -9.0910    2.9714    3.8370 H         1 <0>         0.1133
     67 H24       -10.5949    4.2435    5.3059 H         1 <0>         0.1177
     68 H25        -9.9996    4.6785    7.6276 H         1 <0>         0.1227
     69 H26        -5.3615    1.8491    6.5379 H         1 <0>         0.1183
     70 H27        -4.7714    2.2751    8.8622 H         1 <0>         0.1206
     71 H28        -6.2758    3.5471   10.3314 H         1 <0>         0.1209
     72 H29        -8.3878    4.4269    9.4960 H         1 <0>         0.1244
     73 H30        -8.4873   -0.2308    3.2277 H         1 <0>         0.4161
     74 H31       -11.4936   -0.5161    6.3861 H         1 <0>         0.0753
     75 H32       -11.7001    1.1653    5.8399 H         1 <0>         0.0772
     76 H33       -13.3647    1.7313    4.1627 H         1 <0>         0.1237
     77 H34       -15.5177    1.1313    3.1293 H         1 <0>         0.1258
     78 H35       -16.3513   -1.1811    3.2751 H         1 <0>         0.1250
     79 H36       -15.0316   -2.8936    4.4536 H         1 <0>         0.1261
     80 H37       -12.8746   -2.2954    5.4798 H         1 <0>         0.1239
@<TRIPOS>BOND
     1    1    2 1
     2    1   44 1
     3    1   45 1
     4    1   46 1
     5    2    3 1
     6    2    4 1
     7    2   47 1
     8    3   48 1
     9    3   49 1
    10    3   50 1
    11    4    5 1
    12    4   51 1
    13    4   52 1
    14    5    6 1
    15    5    8 1
    16    5   53 1
    17    6    7 2
    18    6   54 1
    19    8    9 am
    20    8   55 1
    21    9   10 2
    22    9   11 1
    23   11   12 1
    24   11   18 1
    25   11   56 1
    26   12   57 1
    27   12   58 1
    28   12   13 1
    29   13   14 2
    30   13   17 1
    31   14   15 1
    32   14   60 1
    33   15   16 2
    34   16   61 1
    35   16   17 1
    36   17   59 1
    37   18   19 am
    38   18   62 1
    39   19   20 2
    40   19   21 1
    41   21   22 1
    42   21   33 1
    43   21   63 1
    44   22   23 1
    45   22   64 1
    46   22   65 1
    47   23   28 ar
    48   23   24 ar
    49   24   25 ar
    50   24   66 1
    51   25   26 ar
    52   25   67 1
    53   26   27 ar
    54   26   68 1
    55   27   32 ar
    56   27   28 ar
    57   28   29 ar
    58   29   30 ar
    59   29   69 1
    60   30   31 ar
    61   30   70 1
    62   31   32 ar
    63   31   71 1
    64   32   72 1
    65   33   34 am
    66   33   73 1
    67   34   35 2
    68   34   36 1
    69   36   37 1
    70   37   38 1
    71   37   74 1
    72   37   75 1
    73   38   43 ar
    74   38   39 ar
    75   39   40 ar
    76   39   76 1
    77   40   41 ar
    78   40   77 1
    79   41   42 ar
    80   41   78 1
    81   42   43 ar
    82   42   79 1
    83   43   80 1
@<TRIPOS>MOLECULE
CHEMBL75438__11
   80    83     0     0     0
SMALL
USER_CHARGES

@<TRIPOS>ATOM
      1 C1         -0.0187    1.5258    0.0104 C.3       1 <0>        -0.1535
      2 C2          0.0021   -0.0041    0.0020 C.3       1 <0>        -0.0948
      3 C3          0.7182   -0.4975   -1.2568 C.3       1 <0>        -0.1494
      4 C4          0.7421   -0.5109    1.2415 C.3       1 <0>        -0.1173
      5 C5         -0.0416   -0.1236    2.4973 C.3       1 <0>         0.0750
      6 C6          0.7462   -0.5138    3.7213 C.2       1 <0>         0.3283
      7 O1          0.2794   -1.2937    4.5164 O.2       1 <0>        -0.4421
      8 N1         -1.3301   -0.8207    2.5031 N.am      1 <0>        -0.7092
      9 C7         -2.3734   -0.3028    3.1812 C.2       1 <0>         0.5193
     10 O2         -2.2455    0.7404    3.7865 O.2       1 <0>        -0.5301
     11 C8         -3.6989   -1.0198    3.1872 C.3       1 <0>         0.1459
     12 C9         -3.5215   -2.4145    3.7907 C.3       1 <0>        -0.0386
     13 C10        -4.8175   -3.1762    3.6849 C.2       1 <0>         0.0031
     14 C11        -4.9819   -4.3822    3.1087 C.2       1 <0>        -0.0525
     15 N2         -6.3066   -4.7035    3.2334 N.pl3     1 <0>        -0.5707
     16 C12        -6.9061   -3.6819    3.8820 C.2       1 <0>         0.1908
     17 N3         -6.0084   -2.7743    4.1532 N.2       1 <0>        -0.4526
     18 N4         -4.6616   -0.2598    3.9883 N.am      1 <0>        -0.7086
     19 C13        -5.9827   -0.3878    3.7545 C.2       1 <0>         0.5463
     20 O3         -6.3746   -1.1322    2.8808 O.2       1 <0>        -0.5093
     21 C14        -6.9730    0.3939    4.5786 C.3       1 <0>         0.1649
     22 C15        -6.7105    1.8913    4.4062 C.3       1 <0>        -0.0972
     23 C16        -7.6187    2.6694    5.3232 C.ar      1 <0>        -0.0496
     24 C17        -8.8059    3.1510    4.8631 C.ar      1 <0>        -0.1098
     25 C18        -9.6586    3.8725    5.6960 C.ar      1 <0>        -0.1105
     26 C19        -9.3291    4.1171    6.9939 C.ar      1 <0>        -0.1050
     27 C20        -8.1118    3.6360    7.5046 C.ar      1 <0>        -0.0429
     28 C21        -7.2472    2.8966    6.6590 C.ar      1 <0>        -0.0242
     29 C22        -6.0322    2.4103    7.1716 C.ar      1 <0>        -0.1078
     30 C23        -5.7056    2.6499    8.4708 C.ar      1 <0>        -0.1154
     31 C24        -6.5588    3.3713    9.3041 C.ar      1 <0>        -0.1192
     32 C25        -7.7371    3.8690    8.8390 C.ar      1 <0>        -0.1061
     33 N5         -8.3333    0.0821    4.1329 N.am      1 <0>        -0.6870
     34 C26        -9.3707    0.2300    4.9804 C.2       1 <0>         0.6489
     35 O4         -9.1778    0.6220    6.1143 O.2       1 <0>        -0.5495
     36 O5        -10.6208   -0.0565    4.5707 O.3       1 <0>        -0.3610
     37 C27       -11.6723    0.1232    5.5216 C.3       1 <0>         0.1323
     38 C28       -12.9898   -0.2441    4.8889 C.ar      1 <0>        -0.0975
     39 C29       -13.7303    0.7171    4.2265 C.ar      1 <0>        -0.0933
     40 C30       -14.9388    0.3802    3.6462 C.ar      1 <0>        -0.1234
     41 C31       -15.4067   -0.9180    3.7279 C.ar      1 <0>        -0.1089
     42 C32       -14.6658   -1.8794    4.3895 C.ar      1 <0>        -0.1236
     43 C33       -13.4553   -1.5434    4.9661 C.ar      1 <0>        -0.0943
     44 H1          1.0039    1.9031    0.0027 H         1 <0>         0.0581
     45 H2         -0.5459    1.8868   -0.8726 H         1 <0>         0.0569
     46 H3         -0.5289    1.8773    0.9072 H         1 <0>         0.0570
     47 H4         -1.0205   -0.3814    0.0098 H         1 <0>         0.0728
     48 H5          1.7408   -0.1202   -1.2645 H         1 <0>         0.0570
     49 H6          0.7330   -1.5874   -1.2628 H         1 <0>         0.0553
     50 H7          0.1910   -0.1364   -2.1398 H         1 <0>         0.0573
     51 H8          0.8346   -1.5958    1.1912 H         1 <0>         0.0755
     52 H9          1.7350   -0.0630    1.2804 H         1 <0>         0.0900
     53 H10        -0.2110    0.9531    2.5022 H         1 <0>         0.1255
     54 H11         1.7281   -0.0960    3.8873 H         1 <0>         0.1039
     55 H12        -1.4324   -1.6550    2.0189 H         1 <0>         0.4052
     56 H13        -4.0677   -1.1103    2.1654 H         1 <0>         0.1140
     57 H14        -2.7410   -2.9484    3.2486 H         1 <0>         0.0847
     58 H15        -3.2382   -2.3233    4.8393 H         1 <0>         0.0837
     59 H16        -6.7348   -5.5137    2.9154 H         1 <0>         0.4173
     60 H17        -4.2158   -4.9807    2.6382 H         1 <0>         0.1694
     61 H18        -7.9540   -3.6269    4.1375 H         1 <0>         0.1960
     62 H19        -4.3482    0.3355    4.6871 H         1 <0>         0.4061
     63 H20        -6.8642    0.1246    5.6292 H         1 <0>         0.1179
     64 H21        -5.6715    2.1089    4.6536 H         1 <0>         0.0920
     65 H22        -6.9056    2.1778    3.3728 H         1 <0>         0.0838
     66 H23        -9.0910    2.9714    3.8370 H         1 <0>         0.1125
     67 H24       -10.5949    4.2435    5.3059 H         1 <0>         0.1160
     68 H25        -9.9996    4.6785    7.6276 H         1 <0>         0.1212
     69 H26        -5.3615    1.8491    6.5379 H         1 <0>         0.1207
     70 H27        -4.7714    2.2751    8.8622 H         1 <0>         0.1205
     71 H28        -6.2758    3.5471   10.3314 H         1 <0>         0.1199
     72 H29        -8.3878    4.4269    9.4960 H         1 <0>         0.1231
     73 H30        -8.4873   -0.2308    3.2277 H         1 <0>         0.4124
     74 H31       -11.4936   -0.5161    6.3861 H         1 <0>         0.0750
     75 H32       -11.7001    1.1653    5.8399 H         1 <0>         0.0768
     76 H33       -13.3647    1.7313    4.1627 H         1 <0>         0.1241
     77 H34       -15.5177    1.1313    3.1293 H         1 <0>         0.1255
     78 H35       -16.3513   -1.1811    3.2751 H         1 <0>         0.1243
     79 H36       -15.0316   -2.8936    4.4536 H         1 <0>         0.1251
     80 H37       -12.8746   -2.2954    5.4798 H         1 <0>         0.1236
@<TRIPOS>BOND
     1    1    2 1
     2    1   44 1
     3    1   45 1
     4    1   46 1
     5    2    3 1
     6    2    4 1
     7    2   47 1
     8    3   48 1
     9    3   49 1
    10    3   50 1
    11    4    5 1
    12    4   51 1
    13    4   52 1
    14    5    6 1
    15    5    8 1
    16    5   53 1
    17    6    7 2
    18    6   54 1
    19    8    9 am
    20    8   55 1
    21    9   10 2
    22    9   11 1
    23   11   12 1
    24   11   18 1
    25   11   56 1
    26   12   57 1
    27   12   58 1
    28   12   13 1
    29   13   14 2
    30   13   17 1
    31   14   15 1
    32   14   60 1
    33   15   16 1
    34   15   59 1
    35   16   61 1
    36   16   17 2
    37   18   19 am
    38   18   62 1
    39   19   20 2
    40   19   21 1
    41   21   22 1
    42   21   33 1
    43   21   63 1
    44   22   23 1
    45   22   64 1
    46   22   65 1
    47   23   28 ar
    48   23   24 ar
    49   24   25 ar
    50   24   66 1
    51   25   26 ar
    52   25   67 1
    53   26   27 ar
    54   26   68 1
    55   27   32 ar
    56   27   28 ar
    57   28   29 ar
    58   29   30 ar
    59   29   69 1
    60   30   31 ar
    61   30   70 1
    62   31   32 ar
    63   31   71 1
    64   32   72 1
    65   33   34 am
    66   33   73 1
    67   34   35 2
    68   34   36 1
    69   36   37 1
    70   37   38 1
    71   37   74 1
    72   37   75 1
    73   38   43 ar
    74   38   39 ar
    75   39   40 ar
    76   39   76 1
    77   40   41 ar
    78   40   77 1
    79   41   42 ar
    80   41   78 1
    81   42   43 ar
    82   42   79 1
    83   43   80 1
@<TRIPOS>MOLECULE
CHEMBL75438__12
   81    84     0     0     0
SMALL
USER_CHARGES

@<TRIPOS>ATOM
      1 C1         -1.4920   -0.2812   -0.1162 C.3       1 <0>        -0.1520
      2 C2          0.0170   -0.0910    0.0506 C.3       1 <0>        -0.0918
      3 C3          0.4970   -0.8718    1.2757 C.3       1 <0>        -0.1559
      4 C4          0.7370   -0.6066   -1.1970 C.3       1 <0>        -0.1198
      5 C5          2.2304   -0.2918   -1.0907 C.3       1 <0>         0.0739
      6 C6          2.9543   -0.8853   -2.2717 C.2       1 <0>         0.3334
      7 O1          3.5683   -0.1692   -3.0257 O.2       1 <0>        -0.4487
      8 N1          2.4237    1.1604   -1.0789 N.am      1 <0>        -0.7045
      9 C7          3.5233    1.6892   -0.5064 C.2       1 <0>         0.5165
     10 O2          4.3528    0.9629   -0.0011 O.2       1 <0>        -0.5129
     11 C8          3.7222    3.1829   -0.4943 C.3       1 <0>         0.1330
     12 C9          3.7677    3.7031   -1.9324 C.3       1 <0>        -0.0708
     13 C10         3.8431    5.2082   -1.9200 C.2       1 <0>         0.0436
     14 C11         4.9654    5.9434   -1.8040 C.2       1 <0>         0.0436
     15 N2          4.5835    7.2574   -1.8394 N.pl3     1 <0>        -0.5000
     16 C12         3.2402    7.2794   -1.9760 C.cat     1 <0>         0.3122
     17 N3          2.8048    6.0503   -2.0285 N.pl3     1 <0>        -0.4673
     18 N4          4.9826    3.5023    0.1807 N.am      1 <0>        -0.7049
     19 C13         5.1507    4.7080    0.7590 C.2       1 <0>         0.5223
     20 O3          4.2584    5.5286    0.7207 O.2       1 <0>        -0.5373
     21 C14         6.4473    5.0366    1.4533 C.3       1 <0>         0.1553
     22 C15         6.6809    4.0438    2.5937 C.3       1 <0>        -0.0924
     23 C16         8.0335    4.2948    3.2091 C.ar      1 <0>        -0.0700
     24 C17         9.1166    3.5817    2.7950 C.ar      1 <0>        -0.0949
     25 C18        10.3749    3.7998    3.3521 C.ar      1 <0>        -0.1115
     26 C19        10.5576    4.7320    4.3271 C.ar      1 <0>        -0.0973
     27 C20         9.4632    5.4877    4.7803 C.ar      1 <0>        -0.0463
     28 C21         8.1843    5.2701    4.2091 C.ar      1 <0>        -0.0254
     29 C22         7.0908    6.0302    4.6584 C.ar      1 <0>        -0.1254
     30 C23         7.2748    6.9663    5.6289 C.ar      1 <0>        -0.1025
     31 C24         8.5336    7.1847    6.1860 C.ar      1 <0>        -0.1248
     32 C25         9.6128    6.4586    5.7854 C.ar      1 <0>        -0.0999
     33 N5          6.3802    6.3960    1.9953 N.am      1 <0>        -0.7015
     34 C26         7.5133    7.0964    2.2002 C.2       1 <0>         0.6533
     35 O4          8.5905    6.6004    1.9354 O.2       1 <0>        -0.5452
     36 O5          7.4516    8.3457    2.6983 O.3       1 <0>        -0.3537
     37 C27         8.6916    9.0297    2.8899 C.3       1 <0>         0.1341
     38 C28         8.4263   10.4033    3.4501 C.ar      1 <0>        -0.1007
     39 C29         8.2282   11.4718    2.5957 C.ar      1 <0>        -0.0967
     40 C30         7.9849   12.7318    3.1096 C.ar      1 <0>        -0.1233
     41 C31         7.9391   12.9232    4.4779 C.ar      1 <0>        -0.1046
     42 C32         8.1363   11.8545    5.3323 C.ar      1 <0>        -0.1212
     43 C33         8.3754   10.5937    4.8183 C.ar      1 <0>        -0.0915
     44 H1         -1.8486    0.3433   -0.9353 H         1 <0>         0.0549
     45 H2         -1.7041   -1.3271   -0.3379 H         1 <0>         0.0604
     46 H3         -1.9983    0.0047    0.8057 H         1 <0>         0.0597
     47 H4          0.2370    0.9680    0.1855 H         1 <0>         0.0678
     48 H5          0.2770   -1.9308    1.1408 H         1 <0>         0.0617
     49 H6          1.5720   -0.7363    1.3946 H         1 <0>         0.0552
     50 H7         -0.0159   -0.5045    2.1646 H         1 <0>         0.0589
     51 H8          0.5978   -1.6847   -1.2774 H         1 <0>         0.0958
     52 H9          0.3252   -0.1202   -2.0813 H         1 <0>         0.0763
     53 H10         2.6270   -0.7186   -0.1695 H         1 <0>         0.1298
     54 H11         2.9239   -1.9511   -2.4438 H         1 <0>         0.1113
     55 H12         1.7603    1.7412   -1.4830 H         1 <0>         0.4032
     56 H13         2.8958    3.6552    0.0370 H         1 <0>         0.1247
     57 H14         4.6454    3.2995   -2.4372 H         1 <0>         0.1249
     58 H15         2.8678    3.3887   -2.4611 H         1 <0>         0.1120
     59 H16         5.1685    8.0287   -1.7780 H         1 <0>         0.4655
     60 H17         5.9730    5.5683   -1.7022 H         1 <0>         0.2134
     61 H18         2.6280    8.1671   -2.0360 H         1 <0>         0.2640
     62 H19         5.6962    2.8460    0.2113 H         1 <0>         0.4224
     63 H20         7.2685    4.9700    0.7397 H         1 <0>         0.1242
     64 H21         5.9077    4.1720    3.3512 H         1 <0>         0.0871
     65 H22         6.6424    3.0267    2.2037 H         1 <0>         0.0941
     66 H23         8.9987    2.8354    2.0232 H         1 <0>         0.1190
     67 H24        11.2178    3.2203    3.0056 H         1 <0>         0.1225
     68 H25        11.5386    4.8898    4.7503 H         1 <0>         0.1250
     69 H26         6.1096    5.8724    4.2355 H         1 <0>         0.1203
     70 H27         6.4328    7.5489    5.9724 H         1 <0>         0.1192
     71 H28         8.6523    7.9340    6.9546 H         1 <0>         0.1220
     72 H29        10.5820    6.6383    6.2267 H         1 <0>         0.1266
     73 H30         5.5203    6.7919    2.2067 H         1 <0>         0.4127
     74 H31         9.3131    8.4670    3.5865 H         1 <0>         0.0787
     75 H32         9.2078    9.1205    1.9342 H         1 <0>         0.0731
     76 H33         8.2640   11.3222    1.5267 H         1 <0>         0.1205
     77 H34         7.8308   13.5667    2.4421 H         1 <0>         0.1259
     78 H35         7.7497   13.9077    4.8794 H         1 <0>         0.1266
     79 H36         8.1008   12.0041    6.4013 H         1 <0>         0.1274
     80 H37         8.5257    9.7580    5.4858 H         1 <0>         0.1251
     81 H38         1.8765    5.7872   -2.1284 H         1 <0>         0.4619
@<TRIPOS>BOND
     1    1    2 1
     2    1   44 1
     3    1   45 1
     4    1   46 1
     5    2    3 1
     6    2    4 1
     7    2   47 1
     8    3   48 1
     9    3   49 1
    10    3   50 1
    11    4    5 1
    12    4   51 1
    13    4   52 1
    14    5    6 1
    15    5    8 1
    16    5   53 1
    17    6    7 2
    18    6   54 1
    19    8    9 am
    20    8   55 1
    21    9   10 2
    22    9   11 1
    23   11   12 1
    24   11   18 1
    25   11   56 1
    26   12   57 1
    27   12   58 1
    28   12   13 1
    29   13   14 2
    30   13   17 1
    31   14   15 1
    32   14   60 1
    33   15   16 1
    34   15   59 1
    35   16   61 1
    36   16   17 2
    37   17   81 1
    38   18   19 am
    39   18   62 1
    40   19   20 2
    41   19   21 1
    42   21   22 1
    43   21   33 1
    44   21   63 1
    45   22   23 1
    46   22   64 1
    47   22   65 1
    48   23   28 ar
    49   23   24 ar
    50   24   25 ar
    51   24   66 1
    52   25   26 ar
    53   25   67 1
    54   26   27 ar
    55   26   68 1
    56   27   32 ar
    57   27   28 ar
    58   28   29 ar
    59   29   30 ar
    60   29   69 1
    61   30   31 ar
    62   30   70 1
    63   31   32 ar
    64   31   71 1
    65   32   72 1
    66   33   34 am
    67   33   73 1
    68   34   35 2
    69   34   36 1
    70   36   37 1
    71   37   38 1
    72   37   74 1
    73   37   75 1
    74   38   43 ar
    75   38   39 ar
    76   39   40 ar
    77   39   76 1
    78   40   41 ar
    79   40   77 1
    80   41   42 ar
    81   41   78 1
    82   42   43 ar
    83   42   79 1
    84   43   80 1
@<TRIPOS>MOLECULE
CHEMBL75438__13
   80    83     0     0     0
SMALL
USER_CHARGES

@<TRIPOS>ATOM
      1 C1          0.8554   -0.2432   -1.2380 C.3       1 <0>        -0.1493
      2 C2         -0.0461   -0.0916   -0.0111 C.3       1 <0>        -0.0952
      3 C3         -1.3348   -0.8884   -0.2236 C.3       1 <0>        -0.1529
      4 C4          0.6827   -0.6207    1.2257 C.3       1 <0>        -0.1175
      5 C5         -0.1607   -0.3438    2.4719 C.3       1 <0>         0.0752
      6 C6          0.5097   -0.9512    3.6773 C.2       1 <0>         0.3290
      7 O1          0.8447   -0.2481    4.6001 O.2       1 <0>        -0.4430
      8 N1         -0.2901    1.1030    2.6624 N.am      1 <0>        -0.7077
      9 C7         -1.3436    1.6020    3.3389 C.2       1 <0>         0.5203
     10 O2         -2.1845    0.8534    3.7899 O.2       1 <0>        -0.5337
     11 C8         -1.4768    3.0903    3.5348 C.3       1 <0>         0.1421
     12 C9         -0.2621    3.6142    4.3036 C.3       1 <0>        -0.0375
     13 C10        -0.3340    5.1168    4.3928 C.2       1 <0>         0.0074
     14 C11        -0.2900    5.8454    5.5245 C.2       1 <0>        -0.0569
     15 N2         -0.3845    7.1595    5.1534 N.pl3     1 <0>        -0.5704
     16 C12        -0.4829    7.1883    3.8069 C.2       1 <0>         0.1941
     17 N3         -0.4470    5.9633    3.3585 N.2       1 <0>        -0.4530
     18 N4         -2.6962    3.3755    4.2951 N.am      1 <0>        -0.7067
     19 C13        -3.2998    4.5746    4.1755 C.2       1 <0>         0.5103
     20 O3         -2.8336    5.4175    3.4386 O.2       1 <0>        -0.4941
     21 C14        -4.5541    4.8681    4.9576 C.3       1 <0>         0.1588
     22 C15        -5.6431    3.8657    4.5699 C.3       1 <0>        -0.0934
     23 C16        -6.8558    4.0806    5.4383 C.ar      1 <0>        -0.0576
     24 C17        -7.0273    3.3420    6.5689 C.ar      1 <0>        -0.1016
     25 C18        -8.1421    3.5265    7.3841 C.ar      1 <0>        -0.1079
     26 C19        -9.0923    4.4504    7.0736 C.ar      1 <0>        -0.1061
     27 C20        -8.9496    5.2317    5.9145 C.ar      1 <0>        -0.0450
     28 C21        -7.8125    5.0483    5.0885 C.ar      1 <0>        -0.0259
     29 C22        -7.6670    5.8340    3.9322 C.ar      1 <0>        -0.1174
     30 C23        -8.6140    6.7618    3.6250 C.ar      1 <0>        -0.1085
     31 C24        -9.7289    6.9466    4.4408 C.ar      1 <0>        -0.1240
     32 C25        -9.9100    6.1951    5.5609 C.ar      1 <0>        -0.1054
     33 N5         -5.0112    6.2268    4.6557 N.am      1 <0>        -0.6937
     34 C26        -5.7658    6.8979    5.5483 C.2       1 <0>         0.6555
     35 O4         -6.0670    6.3759    6.6035 O.2       1 <0>        -0.5540
     36 O5         -6.1858    8.1466    5.2709 O.3       1 <0>        -0.3543
     37 C27        -6.9820    8.7985    6.2624 C.3       1 <0>         0.1333
     38 C28        -7.3560   10.1764    5.7800 C.ar      1 <0>        -0.0957
     39 C29        -6.5338   11.2525    6.0571 C.ar      1 <0>        -0.0951
     40 C30        -6.8768   12.5164    5.6146 C.ar      1 <0>        -0.1235
     41 C31        -8.0419   12.7041    4.8948 C.ar      1 <0>        -0.1084
     42 C32        -8.8637   11.6279    4.6169 C.ar      1 <0>        -0.1235
     43 C33        -8.5185   10.3633    5.0557 C.ar      1 <0>        -0.0921
     44 H1          1.1697   -1.2827   -1.3317 H         1 <0>         0.0565
     45 H2          0.3055    0.0521   -2.1316 H         1 <0>         0.0577
     46 H3          1.7332    0.3930   -1.1247 H         1 <0>         0.0556
     47 H4         -0.2894    0.9611    0.1331 H         1 <0>         0.0739
     48 H5         -1.0915   -1.9411   -0.3678 H         1 <0>         0.0576
     49 H6         -1.9771   -0.7804    0.6505 H         1 <0>         0.0563
     50 H7         -1.8540   -0.5114   -1.1048 H         1 <0>         0.0569
     51 H8          0.8386   -1.6947    1.1238 H         1 <0>         0.0900
     52 H9          1.6467   -0.1210    1.3210 H         1 <0>         0.0759
     53 H10        -1.1500   -0.7837    2.3462 H         1 <0>         0.1251
     54 H11         0.6904   -2.0152    3.7157 H         1 <0>         0.1040
     55 H12         0.3824    1.7017    2.3017 H         1 <0>         0.4071
     56 H13        -1.5312    3.5812    2.5632 H         1 <0>         0.1258
     57 H14        -0.2573    3.1904    5.3078 H         1 <0>         0.0823
     58 H15         0.6503    3.3243    3.7825 H         1 <0>         0.0863
     59 H16        -0.3813    7.9269    5.7468 H         1 <0>         0.4165
     60 H17        -0.1982    5.4658    6.5314 H         1 <0>         0.1664
     61 H18        -0.5724    8.0779    3.2011 H         1 <0>         0.1997
     62 H19        -3.0691    2.7014    4.8845 H         1 <0>         0.4088
     63 H20        -4.3455    4.7835    6.0241 H         1 <0>         0.1159
     64 H21        -5.9147    4.0107    3.5243 H         1 <0>         0.0853
     65 H22        -5.2702    2.8513    4.7112 H         1 <0>         0.0936
     66 H23        -6.2884    2.6016    6.8377 H         1 <0>         0.1190
     67 H24        -8.2541    2.9272    8.2756 H         1 <0>         0.1197
     68 H25        -9.9515    4.5820    7.7145 H         1 <0>         0.1217
     69 H26        -6.8079    5.7024    3.2910 H         1 <0>         0.1237
     70 H27        -8.4998    7.3642    2.7359 H         1 <0>         0.1188
     71 H28       -10.4656    7.6901    4.1743 H         1 <0>         0.1192
     72 H29       -10.7793    6.3488    6.1831 H         1 <0>         0.1234
     73 H30        -4.7707    6.6435    3.8135 H         1 <0>         0.4136
     74 H31        -7.8871    8.2180    6.4410 H         1 <0>         0.0766
     75 H32        -6.4138    8.8798    7.1890 H         1 <0>         0.0712
     76 H33        -5.6235   11.1059    6.6195 H         1 <0>         0.1219
     77 H34        -6.2348   13.3573    5.8317 H         1 <0>         0.1248
     78 H35        -8.3103   13.6917    4.5497 H         1 <0>         0.1242
     79 H36        -9.7742   11.7746    4.0548 H         1 <0>         0.1252
     80 H37        -9.1587    9.5218    4.8355 H         1 <0>         0.1249
@<TRIPOS>BOND
     1    1    2 1
     2    1   44 1
     3    1   45 1
     4    1   46 1
     5    2    3 1
     6    2    4 1
     7    2   47 1
     8    3   48 1
     9    3   49 1
    10    3   50 1
    11    4    5 1
    12    4   51 1
    13    4   52 1
    14    5    6 1
    15    5    8 1
    16    5   53 1
    17    6    7 2
    18    6   54 1
    19    8    9 am
    20    8   55 1
    21    9   10 2
    22    9   11 1
    23   11   12 1
    24   11   18 1
    25   11   56 1
    26   12   57 1
    27   12   58 1
    28   12   13 1
    29   13   14 2
    30   13   17 1
    31   14   15 1
    32   14   60 1
    33   15   16 1
    34   15   59 1
    35   16   61 1
    36   16   17 2
    37   18   19 am
    38   18   62 1
    39   19   20 2
    40   19   21 1
    41   21   22 1
    42   21   33 1
    43   21   63 1
    44   22   23 1
    45   22   64 1
    46   22   65 1
    47   23   28 ar
    48   23   24 ar
    49   24   25 ar
    50   24   66 1
    51   25   26 ar
    52   25   67 1
    53   26   27 ar
    54   26   68 1
    55   27   32 ar
    56   27   28 ar
    57   28   29 ar
    58   29   30 ar
    59   29   69 1
    60   30   31 ar
    61   30   70 1
    62   31   32 ar
    63   31   71 1
    64   32   72 1
    65   33   34 am
    66   33   73 1
    67   34   35 2
    68   34   36 1
    69   36   37 1
    70   37   38 1
    71   37   74 1
    72   37   75 1
    73   38   43 ar
    74   38   39 ar
    75   39   40 ar
    76   39   76 1
    77   40   41 ar
    78   40   77 1
    79   41   42 ar
    80   41   78 1
    81   42   43 ar
    82   42   79 1
    83   43   80 1
@<TRIPOS>MOLECULE
CHEMBL75438__14
   80    83     0     0     0
SMALL
USER_CHARGES

@<TRIPOS>ATOM
      1 C1          0.8554   -0.2432   -1.2380 C.3       1 <0>        -0.1499
      2 C2         -0.0461   -0.0916   -0.0111 C.3       1 <0>        -0.0944
      3 C3         -1.3348   -0.8884   -0.2236 C.3       1 <0>        -0.1537
      4 C4          0.6827   -0.6207    1.2257 C.3       1 <0>        -0.1179
      5 C5         -0.1607   -0.3438    2.4719 C.3       1 <0>         0.0749
      6 C6          0.5097   -0.9512    3.6773 C.2       1 <0>         0.3289
      7 O1          0.8447   -0.2481    4.6001 O.2       1 <0>        -0.4427
      8 N1         -0.2901    1.1030    2.6624 N.am      1 <0>        -0.7083
      9 C7         -1.3436    1.6020    3.3389 C.2       1 <0>         0.5200
     10 O2         -2.1845    0.8534    3.7899 O.2       1 <0>        -0.5258
     11 C8         -1.4768    3.0903    3.5348 C.3       1 <0>         0.1396
     12 C9         -0.2621    3.6142    4.3036 C.3       1 <0>        -0.0492
     13 C10        -0.3340    5.1168    4.3928 C.2       1 <0>        -0.0177
     14 C11        -1.0020    5.8352    5.3154 C.2       1 <0>        -0.0027
     15 N2         -0.8132    7.1354    5.0454 N.2       1 <0>        -0.4827
     16 C12        -0.0534    7.2500    3.9906 C.2       1 <0>         0.1912
     17 N3          0.2722    6.0138    3.5552 N.pl3     1 <0>        -0.5602
     18 N4         -2.6962    3.3755    4.2951 N.am      1 <0>        -0.7083
     19 C13        -3.2998    4.5746    4.1755 C.2       1 <0>         0.5199
     20 O3         -2.8336    5.4175    3.4386 O.2       1 <0>        -0.5070
     21 C14        -4.5541    4.8681    4.9576 C.3       1 <0>         0.1603
     22 C15        -5.6431    3.8657    4.5699 C.3       1 <0>        -0.0936
     23 C16        -6.8558    4.0806    5.4383 C.ar      1 <0>        -0.0584
     24 C17        -7.0273    3.3420    6.5689 C.ar      1 <0>        -0.1007
     25 C18        -8.1421    3.5265    7.3841 C.ar      1 <0>        -0.1082
     26 C19        -9.0923    4.4504    7.0736 C.ar      1 <0>        -0.1051
     27 C20        -8.9496    5.2317    5.9145 C.ar      1 <0>        -0.0448
     28 C21        -7.8125    5.0483    5.0885 C.ar      1 <0>        -0.0252
     29 C22        -7.6670    5.8340    3.9322 C.ar      1 <0>        -0.1176
     30 C23        -8.6140    6.7618    3.6250 C.ar      1 <0>        -0.1081
     31 C24        -9.7289    6.9466    4.4408 C.ar      1 <0>        -0.1238
     32 C25        -9.9100    6.1951    5.5609 C.ar      1 <0>        -0.1050
     33 N5         -5.0112    6.2268    4.6557 N.am      1 <0>        -0.6923
     34 C26        -5.7658    6.8979    5.5483 C.2       1 <0>         0.6588
     35 O4         -6.0670    6.3759    6.6035 O.2       1 <0>        -0.5545
     36 O5         -6.1858    8.1466    5.2709 O.3       1 <0>        -0.3531
     37 C27        -6.9820    8.7985    6.2624 C.3       1 <0>         0.1332
     38 C28        -7.3560   10.1764    5.7800 C.ar      1 <0>        -0.0951
     39 C29        -6.5338   11.2525    6.0571 C.ar      1 <0>        -0.0934
     40 C30        -6.8768   12.5164    5.6146 C.ar      1 <0>        -0.1234
     41 C31        -8.0419   12.7041    4.8948 C.ar      1 <0>        -0.1092
     42 C32        -8.8637   11.6279    4.6169 C.ar      1 <0>        -0.1248
     43 C33        -8.5185   10.3633    5.0557 C.ar      1 <0>        -0.0929
     44 H1          1.1697   -1.2827   -1.3317 H         1 <0>         0.0578
     45 H2          0.3055    0.0521   -2.1316 H         1 <0>         0.0581
     46 H3          1.7332    0.3930   -1.1247 H         1 <0>         0.0550
     47 H4         -0.2894    0.9611    0.1331 H         1 <0>         0.0714
     48 H5         -1.0915   -1.9411   -0.3678 H         1 <0>         0.0588
     49 H6         -1.9771   -0.7804    0.6505 H         1 <0>         0.0565
     50 H7         -1.8540   -0.5114   -1.1048 H         1 <0>         0.0573
     51 H8          0.8386   -1.6947    1.1238 H         1 <0>         0.0916
     52 H9          1.6467   -0.1210    1.3210 H         1 <0>         0.0754
     53 H10        -1.1500   -0.7837    2.3462 H         1 <0>         0.1264
     54 H11         0.6904   -2.0152    3.7157 H         1 <0>         0.1057
     55 H12         0.3824    1.7017    2.3017 H         1 <0>         0.4043
     56 H13        -1.5312    3.5812    2.5632 H         1 <0>         0.1158
     57 H14        -0.2573    3.1904    5.3078 H         1 <0>         0.0983
     58 H15         0.6503    3.3243    3.7825 H         1 <0>         0.0836
     59 H16         0.8301    5.8012    2.7907 H         1 <0>         0.4144
     60 H17        -1.5873    5.4346    6.1299 H         1 <0>         0.1524
     61 H18         0.2650    8.1795    3.5422 H         1 <0>         0.2023
     62 H19        -3.0691    2.7014    4.8845 H         1 <0>         0.4127
     63 H20        -4.3455    4.7835    6.0241 H         1 <0>         0.1197
     64 H21        -5.9147    4.0107    3.5243 H         1 <0>         0.0846
     65 H22        -5.2702    2.8513    4.7112 H         1 <0>         0.0931
     66 H23        -6.2884    2.6016    6.8377 H         1 <0>         0.1191
     67 H24        -8.2541    2.9272    8.2756 H         1 <0>         0.1197
     68 H25        -9.9515    4.5820    7.7145 H         1 <0>         0.1218
     69 H26        -6.8079    5.7024    3.2910 H         1 <0>         0.1231
     70 H27        -8.4998    7.3642    2.7359 H         1 <0>         0.1185
     71 H28       -10.4656    7.6901    4.1743 H         1 <0>         0.1192
     72 H29       -10.7793    6.3488    6.1831 H         1 <0>         0.1235
     73 H30        -4.7707    6.6435    3.8135 H         1 <0>         0.4133
     74 H31        -7.8871    8.2180    6.4410 H         1 <0>         0.0757
     75 H32        -6.4138    8.8798    7.1890 H         1 <0>         0.0727
     76 H33        -5.6235   11.1059    6.6195 H         1 <0>         0.1240
     77 H34        -6.2348   13.3573    5.8317 H         1 <0>         0.1249
     78 H35        -8.3103   13.6917    4.5497 H         1 <0>         0.1235
     79 H36        -9.7742   11.7746    4.0548 H         1 <0>         0.1243
     80 H37        -9.1587    9.5218    4.8355 H         1 <0>         0.1242
@<TRIPOS>BOND
     1    1    2 1
     2    1   44 1
     3    1   45 1
     4    1   46 1
     5    2    3 1
     6    2    4 1
     7    2   47 1
     8    3   48 1
     9    3   49 1
    10    3   50 1
    11    4    5 1
    12    4   51 1
    13    4   52 1
    14    5    6 1
    15    5    8 1
    16    5   53 1
    17    6    7 2
    18    6   54 1
    19    8    9 am
    20    8   55 1
    21    9   10 2
    22    9   11 1
    23   11   12 1
    24   11   18 1
    25   11   56 1
    26   12   57 1
    27   12   58 1
    28   12   13 1
    29   13   14 2
    30   13   17 1
    31   14   15 1
    32   14   60 1
    33   15   16 2
    34   16   61 1
    35   16   17 1
    36   17   59 1
    37   18   19 am
    38   18   62 1
    39   19   20 2
    40   19   21 1
    41   21   22 1
    42   21   33 1
    43   21   63 1
    44   22   23 1
    45   22   64 1
    46   22   65 1
    47   23   28 ar
    48   23   24 ar
    49   24   25 ar
    50   24   66 1
    51   25   26 ar
    52   25   67 1
    53   26   27 ar
    54   26   68 1
    55   27   32 ar
    56   27   28 ar
    57   28   29 ar
    58   29   30 ar
    59   29   69 1
    60   30   31 ar
    61   30   70 1
    62   31   32 ar
    63   31   71 1
    64   32   72 1
    65   33   34 am
    66   33   73 1
    67   34   35 2
    68   34   36 1
    69   36   37 1
    70   37   38 1
    71   37   74 1
    72   37   75 1
    73   38   43 ar
    74   38   39 ar
    75   39   40 ar
    76   39   76 1
    77   40   41 ar
    78   40   77 1
    79   41   42 ar
    80   41   78 1
    81   42   43 ar
    82   42   79 1
    83   43   80 1
@<TRIPOS>MOLECULE
CHEMBL75438__15
   81    84     0     0     0
SMALL
USER_CHARGES

@<TRIPOS>ATOM
      1 C1         -1.4920   -0.2812   -0.1162 C.3       1 <0>        -0.1519
      2 C2          0.0170   -0.0910    0.0506 C.3       1 <0>        -0.0919
      3 C3          0.4970   -0.8718    1.2757 C.3       1 <0>        -0.1560
      4 C4          0.7370   -0.6066   -1.1970 C.3       1 <0>        -0.1197
      5 C5          2.2304   -0.2918   -1.0907 C.3       1 <0>         0.0737
      6 C6          2.9543   -0.8853   -2.2717 C.2       1 <0>         0.3336
      7 O1          3.5683   -0.1692   -3.0257 O.2       1 <0>        -0.4487
      8 N1          2.4237    1.1604   -1.0789 N.am      1 <0>        -0.7044
      9 C7          3.5233    1.6892   -0.5064 C.2       1 <0>         0.5163
     10 O2          4.3528    0.9629   -0.0011 O.2       1 <0>        -0.5125
     11 C8          3.7222    3.1829   -0.4943 C.3       1 <0>         0.1324
     12 C9          3.7677    3.7031   -1.9324 C.3       1 <0>        -0.0715
     13 C10         3.8431    5.2082   -1.9200 C.2       1 <0>         0.0463
     14 C11         4.9654    5.9434   -1.8040 C.2       1 <0>         0.0369
     15 N2          4.5835    7.2574   -1.8394 N.pl3     1 <0>        -0.5016
     16 C12         3.2402    7.2794   -1.9760 C.cat     1 <0>         0.3141
     17 N3          2.8048    6.0503   -2.0285 N.pl3     1 <0>        -0.4673
     18 N4          4.9826    3.5023    0.1807 N.am      1 <0>        -0.7055
     19 C13         5.1507    4.7080    0.7590 C.2       1 <0>         0.5233
     20 O3          4.2584    5.5286    0.7207 O.2       1 <0>        -0.5363
     21 C14         6.4473    5.0366    1.4533 C.3       1 <0>         0.1509
     22 C15         7.6000    4.9432    0.4516 C.3       1 <0>        -0.0905
     23 C16         8.9082    5.1508    1.1704 C.ar      1 <0>        -0.0679
     24 C17         9.4738    6.3880    1.2181 C.ar      1 <0>        -0.1013
     25 C18        10.6827    6.5993    1.8779 C.ar      1 <0>        -0.1178
     26 C19        11.3335    5.5744    2.4937 C.ar      1 <0>        -0.0909
     27 C20        10.7804    4.2831    2.4657 C.ar      1 <0>        -0.0444
     28 C21         9.5474    4.0695    1.7998 C.ar      1 <0>        -0.0223
     29 C22         8.9914    2.7789    1.7770 C.ar      1 <0>        -0.1203
     30 C23         9.6391    1.7556    2.3977 C.ar      1 <0>        -0.1046
     31 C24        10.8482    1.9669    3.0581 C.ar      1 <0>        -0.1182
     32 C25        11.4232    3.2001    3.0896 C.ar      1 <0>        -0.0994
     33 N5          6.3802    6.3960    1.9953 N.am      1 <0>        -0.6973
     34 C26         7.1503    6.7412    3.0460 C.2       1 <0>         0.6482
     35 O4          7.9003    5.9250    3.5438 O.2       1 <0>        -0.5372
     36 O5          7.0887    7.9906    3.5441 O.3       1 <0>        -0.3588
     37 C27         7.9328    8.2871    4.6584 C.3       1 <0>         0.1327
     38 C28         7.7289    9.7208    5.0756 C.ar      1 <0>        -0.1033
     39 C29         8.5005   10.7206    4.5135 C.ar      1 <0>        -0.0938
     40 C30         8.3135   12.0357    4.8962 C.ar      1 <0>        -0.1227
     41 C31         7.3545   12.3510    5.8405 C.ar      1 <0>        -0.1047
     42 C32         6.5822   11.3513    6.4019 C.ar      1 <0>        -0.1218
     43 C33         6.7663   10.0367    6.0161 C.ar      1 <0>        -0.0939
     44 H1         -1.8486    0.3433   -0.9353 H         1 <0>         0.0549
     45 H2         -1.7041   -1.3271   -0.3379 H         1 <0>         0.0604
     46 H3         -1.9983    0.0047    0.8057 H         1 <0>         0.0596
     47 H4          0.2370    0.9680    0.1855 H         1 <0>         0.0677
     48 H5          0.2770   -1.9308    1.1408 H         1 <0>         0.0618
     49 H6          1.5720   -0.7363    1.3946 H         1 <0>         0.0551
     50 H7         -0.0159   -0.5045    2.1646 H         1 <0>         0.0589
     51 H8          0.5978   -1.6847   -1.2774 H         1 <0>         0.0958
     52 H9          0.3252   -0.1202   -2.0813 H         1 <0>         0.0764
     53 H10         2.6270   -0.7186   -0.1695 H         1 <0>         0.1298
     54 H11         2.9239   -1.9511   -2.4438 H         1 <0>         0.1113
     55 H12         1.7603    1.7412   -1.4830 H         1 <0>         0.4033
     56 H13         2.8958    3.6552    0.0370 H         1 <0>         0.1250
     57 H14         4.6454    3.2995   -2.4372 H         1 <0>         0.1258
     58 H15         2.8678    3.3887   -2.4611 H         1 <0>         0.1129
     59 H16         5.1685    8.0287   -1.7780 H         1 <0>         0.4658
     60 H17         5.9730    5.5683   -1.7022 H         1 <0>         0.2141
     61 H18         2.6280    8.1671   -2.0360 H         1 <0>         0.2648
     62 H19         5.6962    2.8460    0.2113 H         1 <0>         0.4214
     63 H20         6.6137    4.3293    2.2658 H         1 <0>         0.1295
     64 H21         7.5952    3.9592   -0.0172 H         1 <0>         0.0943
     65 H22         7.4799    5.7106   -0.3131 H         1 <0>         0.0774
     66 H23         8.9783    7.2183    0.7370 H         1 <0>         0.1098
     67 H24        11.1100    7.5909    1.9009 H         1 <0>         0.1192
     68 H25        12.2702    5.7528    3.0007 H         1 <0>         0.1257
     69 H26         8.0548    2.6002    1.2698 H         1 <0>         0.1168
     70 H27         9.2096    0.7648    2.3786 H         1 <0>         0.1233
     71 H28        11.3415    1.1375    3.5430 H         1 <0>         0.1244
     72 H29        12.3609    3.3488    3.6044 H         1 <0>         0.1275
     73 H30         5.7815    7.0475    1.5979 H         1 <0>         0.4087
     74 H31         7.6824    7.6278    5.4895 H         1 <0>         0.0778
     75 H32         8.9745    8.1356    4.3756 H         1 <0>         0.0797
     76 H33         9.2497   10.4742    3.7758 H         1 <0>         0.1234
     77 H34         8.9168   12.8167    4.4576 H         1 <0>         0.1272
     78 H35         7.2088   13.3784    6.1400 H         1 <0>         0.1270
     79 H36         5.8332   11.5977    7.1399 H         1 <0>         0.1274
     80 H37         6.1604    9.2561    6.4519 H         1 <0>         0.1238
     81 H38         1.8765    5.7872   -2.1284 H         1 <0>         0.4623
@<TRIPOS>BOND
     1    1    2 1
     2    1   44 1
     3    1   45 1
     4    1   46 1
     5    2    3 1
     6    2    4 1
     7    2   47 1
     8    3   48 1
     9    3   49 1
    10    3   50 1
    11    4    5 1
    12    4   51 1
    13    4   52 1
    14    5    6 1
    15    5    8 1
    16    5   53 1
    17    6    7 2
    18    6   54 1
    19    8    9 am
    20    8   55 1
    21    9   10 2
    22    9   11 1
    23   11   12 1
    24   11   18 1
    25   11   56 1
    26   12   57 1
    27   12   58 1
    28   12   13 1
    29   13   14 2
    30   13   17 1
    31   14   15 1
    32   14   60 1
    33   15   16 1
    34   15   59 1
    35   16   61 1
    36   16   17 2
    37   17   81 1
    38   18   19 am
    39   18   62 1
    40   19   20 2
    41   19   21 1
    42   21   22 1
    43   21   33 1
    44   21   63 1
    45   22   23 1
    46   22   64 1
    47   22   65 1
    48   23   28 ar
    49   23   24 ar
    50   24   25 ar
    51   24   66 1
    52   25   26 ar
    53   25   67 1
    54   26   27 ar
    55   26   68 1
    56   27   32 ar
    57   27   28 ar
    58   28   29 ar
    59   29   30 ar
    60   29   69 1
    61   30   31 ar
    62   30   70 1
    63   31   32 ar
    64   31   71 1
    65   32   72 1
    66   33   34 am
    67   33   73 1
    68   34   35 2
    69   34   36 1
    70   36   37 1
    71   37   38 1
    72   37   74 1
    73   37   75 1
    74   38   43 ar
    75   38   39 ar
    76   39   40 ar
    77   39   76 1
    78   40   41 ar
    79   40   77 1
    80   41   42 ar
    81   41   78 1
    82   42   43 ar
    83   42   79 1
    84   43   80 1
@<TRIPOS>MOLECULE
CHEMBL75438__16
   80    83     0     0     0
SMALL
USER_CHARGES

@<TRIPOS>ATOM
      1 C1          0.8554   -0.2432   -1.2380 C.3       1 <0>        -0.1498
      2 C2         -0.0461   -0.0916   -0.0111 C.3       1 <0>        -0.0945
      3 C3         -1.3348   -0.8884   -0.2236 C.3       1 <0>        -0.1538
      4 C4          0.6827   -0.6207    1.2257 C.3       1 <0>        -0.1177
      5 C5         -0.1607   -0.3438    2.4719 C.3       1 <0>         0.0747
      6 C6          0.5097   -0.9512    3.6773 C.2       1 <0>         0.3292
      7 O1          0.8447   -0.2481    4.6001 O.2       1 <0>        -0.4427
      8 N1         -0.2901    1.1030    2.6624 N.am      1 <0>        -0.7081
      9 C7         -1.3436    1.6020    3.3389 C.2       1 <0>         0.5197
     10 O2         -2.1845    0.8534    3.7899 O.2       1 <0>        -0.5254
     11 C8         -1.4768    3.0903    3.5348 C.3       1 <0>         0.1390
     12 C9         -0.2621    3.6142    4.3036 C.3       1 <0>        -0.0497
     13 C10        -0.3340    5.1168    4.3928 C.2       1 <0>        -0.0164
     14 C11        -1.0020    5.8352    5.3154 C.2       1 <0>        -0.0078
     15 N2         -0.8132    7.1354    5.0454 N.2       1 <0>        -0.4841
     16 C12        -0.0534    7.2500    3.9906 C.2       1 <0>         0.1920
     17 N3          0.2722    6.0138    3.5552 N.pl3     1 <0>        -0.5598
     18 N4         -2.6962    3.3755    4.2951 N.am      1 <0>        -0.7086
     19 C13        -3.2998    4.5746    4.1755 C.2       1 <0>         0.5197
     20 O3         -2.8336    5.4175    3.4386 O.2       1 <0>        -0.5062
     21 C14        -4.5541    4.8681    4.9576 C.3       1 <0>         0.1594
     22 C15        -4.2612    4.7493    6.4546 C.3       1 <0>        -0.0953
     23 C16        -5.5407    4.9215    7.2320 C.ar      1 <0>        -0.0539
     24 C17        -5.8839    6.1440    7.7227 C.ar      1 <0>        -0.1051
     25 C18        -7.0628    6.3225    8.4437 C.ar      1 <0>        -0.1106
     26 C19        -7.9053    5.2794    8.6788 C.ar      1 <0>        -0.1031
     27 C20        -7.5846    4.0026    8.1881 C.ar      1 <0>        -0.0437
     28 C21        -6.3884    3.8223    7.4492 C.ar      1 <0>        -0.0238
     29 C22        -6.0706    2.5461    6.9534 C.ar      1 <0>        -0.1112
     30 C23        -6.9159    1.5047    7.1834 C.ar      1 <0>        -0.1138
     31 C24        -8.0954    1.6834    7.9044 C.ar      1 <0>        -0.1205
     32 C25        -8.4292    2.9016    8.4111 C.ar      1 <0>        -0.1041
     33 N5         -5.0112    6.2268    4.6557 N.am      1 <0>        -0.6906
     34 C26        -6.3114    6.5490    4.8041 C.2       1 <0>         0.6500
     35 O4         -7.1046    5.7125    5.1883 O.2       1 <0>        -0.5501
     36 O5         -6.7314    7.7977    4.5267 O.3       1 <0>        -0.3579
     37 C27        -8.1229    8.0691    4.7064 C.3       1 <0>         0.1320
     38 C28        -8.4046    9.5060    4.3499 C.ar      1 <0>        -0.0985
     39 C29        -8.3190   10.4880    5.3190 C.ar      1 <0>        -0.0925
     40 C30        -8.5774   11.8061    4.9920 C.ar      1 <0>        -0.1233
     41 C31        -8.9210   12.1421    3.6959 C.ar      1 <0>        -0.1083
     42 C32        -9.0056   11.1601    2.7266 C.ar      1 <0>        -0.1235
     43 C33        -8.7430    9.8427    3.0526 C.ar      1 <0>        -0.0941
     44 H1          1.1697   -1.2827   -1.3317 H         1 <0>         0.0578
     45 H2          0.3055    0.0521   -2.1316 H         1 <0>         0.0580
     46 H3          1.7332    0.3930   -1.1247 H         1 <0>         0.0550
     47 H4         -0.2894    0.9611    0.1331 H         1 <0>         0.0713
     48 H5         -1.0915   -1.9411   -0.3678 H         1 <0>         0.0589
     49 H6         -1.9771   -0.7804    0.6505 H         1 <0>         0.0565
     50 H7         -1.8540   -0.5114   -1.1048 H         1 <0>         0.0573
     51 H8          0.8386   -1.6947    1.1238 H         1 <0>         0.0916
     52 H9          1.6467   -0.1210    1.3210 H         1 <0>         0.0755
     53 H10        -1.1500   -0.7837    2.3462 H         1 <0>         0.1264
     54 H11         0.6904   -2.0152    3.7157 H         1 <0>         0.1057
     55 H12         0.3824    1.7017    2.3017 H         1 <0>         0.4043
     56 H13        -1.5312    3.5812    2.5632 H         1 <0>         0.1159
     57 H14        -0.2573    3.1904    5.3078 H         1 <0>         0.0991
     58 H15         0.6503    3.3243    3.7825 H         1 <0>         0.0841
     59 H16         0.8301    5.8012    2.7907 H         1 <0>         0.4148
     60 H17        -1.5873    5.4346    6.1299 H         1 <0>         0.1551
     61 H18         0.2650    8.1795    3.5422 H         1 <0>         0.2028
     62 H19        -3.0691    2.7014    4.8845 H         1 <0>         0.4116
     63 H20        -5.3299    4.1540    4.6814 H         1 <0>         0.1189
     64 H21        -3.8375    3.7674    6.6652 H         1 <0>         0.0901
     65 H22        -3.5509    5.5221    6.7483 H         1 <0>         0.0905
     66 H23        -5.2326    6.9881    7.5508 H         1 <0>         0.1149
     67 H24        -7.3116    7.3030    8.8220 H         1 <0>         0.1172
     68 H25        -8.8153    5.4325    9.2399 H         1 <0>         0.1218
     69 H26        -5.1606    2.3928    6.3924 H         1 <0>         0.1195
     70 H27        -6.6694    0.5251    6.8013 H         1 <0>         0.1207
     71 H28        -8.7489    0.8401    8.0724 H         1 <0>         0.1201
     72 H29        -9.3460    3.0249    8.9686 H         1 <0>         0.1235
     73 H30        -4.3780    6.8946    4.3491 H         1 <0>         0.4172
     74 H31        -8.7073    7.4133    4.0609 H         1 <0>         0.0751
     75 H32        -8.3961    7.8925    5.7467 H         1 <0>         0.0776
     76 H33        -8.0506   10.2255    6.3316 H         1 <0>         0.1244
     77 H34        -8.5113   12.5732    5.7493 H         1 <0>         0.1258
     78 H35        -9.1235   13.1717    3.4406 H         1 <0>         0.1245
     79 H36        -9.2743   11.4226    1.7140 H         1 <0>         0.1253
     80 H37        -8.8056    9.0760    2.2945 H         1 <0>         0.1236
@<TRIPOS>BOND
     1    1    2 1
     2    1   44 1
     3    1   45 1
     4    1   46 1
     5    2    3 1
     6    2    4 1
     7    2   47 1
     8    3   48 1
     9    3   49 1
    10    3   50 1
    11    4    5 1
    12    4   51 1
    13    4   52 1
    14    5    6 1
    15    5    8 1
    16    5   53 1
    17    6    7 2
    18    6   54 1
    19    8    9 am
    20    8   55 1
    21    9   10 2
    22    9   11 1
    23   11   12 1
    24   11   18 1
    25   11   56 1
    26   12   57 1
    27   12   58 1
    28   12   13 1
    29   13   14 2
    30   13   17 1
    31   14   15 1
    32   14   60 1
    33   15   16 2
    34   16   61 1
    35   16   17 1
    36   17   59 1
    37   18   19 am
    38   18   62 1
    39   19   20 2
    40   19   21 1
    41   21   22 1
    42   21   33 1
    43   21   63 1
    44   22   23 1
    45   22   64 1
    46   22   65 1
    47   23   28 ar
    48   23   24 ar
    49   24   25 ar
    50   24   66 1
    51   25   26 ar
    52   25   67 1
    53   26   27 ar
    54   26   68 1
    55   27   32 ar
    56   27   28 ar
    57   28   29 ar
    58   29   30 ar
    59   29   69 1
    60   30   31 ar
    61   30   70 1
    62   31   32 ar
    63   31   71 1
    64   32   72 1
    65   33   34 am
    66   33   73 1
    67   34   35 2
    68   34   36 1
    69   36   37 1
    70   37   38 1
    71   37   74 1
    72   37   75 1
    73   38   43 ar
    74   38   39 ar
    75   39   40 ar
    76   39   76 1
    77   40   41 ar
    78   40   77 1
    79   41   42 ar
    80   41   78 1
    81   42   43 ar
    82   42   79 1
    83   43   80 1
@<TRIPOS>MOLECULE
CHEMBL75438__17
   80    83     0     0     0
SMALL
USER_CHARGES

@<TRIPOS>ATOM
      1 C1          0.8554   -0.2432   -1.2380 C.3       1 <0>        -0.1493
      2 C2         -0.0461   -0.0916   -0.0111 C.3       1 <0>        -0.0954
      3 C3         -1.3348   -0.8884   -0.2236 C.3       1 <0>        -0.1531
      4 C4          0.6827   -0.6207    1.2257 C.3       1 <0>        -0.1174
      5 C5         -0.1607   -0.3438    2.4719 C.3       1 <0>         0.0750
      6 C6          0.5097   -0.9512    3.6773 C.2       1 <0>         0.3292
      7 O1          0.8447   -0.2481    4.6001 O.2       1 <0>        -0.4430
      8 N1         -0.2901    1.1030    2.6624 N.am      1 <0>        -0.7076
      9 C7         -1.3436    1.6020    3.3389 C.2       1 <0>         0.5200
     10 O2         -2.1845    0.8534    3.7899 O.2       1 <0>        -0.5334
     11 C8         -1.4768    3.0903    3.5348 C.3       1 <0>         0.1416
     12 C9         -0.2621    3.6142    4.3036 C.3       1 <0>        -0.0376
     13 C10        -0.3340    5.1168    4.3928 C.2       1 <0>         0.0086
     14 C11        -0.2900    5.8454    5.5245 C.2       1 <0>        -0.0575
     15 N2         -0.3845    7.1595    5.1534 N.pl3     1 <0>        -0.5711
     16 C12        -0.4829    7.1883    3.8069 C.2       1 <0>         0.1931
     17 N3         -0.4470    5.9633    3.3585 N.2       1 <0>        -0.4529
     18 N4         -2.6962    3.3755    4.2951 N.am      1 <0>        -0.7069
     19 C13        -3.2998    4.5746    4.1755 C.2       1 <0>         0.5105
     20 O3         -2.8336    5.4175    3.4386 O.2       1 <0>        -0.4932
     21 C14        -4.5541    4.8681    4.9576 C.3       1 <0>         0.1566
     22 C15        -4.2612    4.7493    6.4546 C.3       1 <0>        -0.0897
     23 C16        -5.5407    4.9215    7.2320 C.ar      1 <0>        -0.0531
     24 C17        -5.8839    6.1440    7.7227 C.ar      1 <0>        -0.1080
     25 C18        -7.0628    6.3225    8.4437 C.ar      1 <0>        -0.1118
     26 C19        -7.9053    5.2794    8.6788 C.ar      1 <0>        -0.1026
     27 C20        -7.5846    4.0026    8.1881 C.ar      1 <0>        -0.0432
     28 C21        -6.3884    3.8223    7.4492 C.ar      1 <0>        -0.0243
     29 C22        -6.0706    2.5461    6.9534 C.ar      1 <0>        -0.1107
     30 C23        -6.9159    1.5047    7.1834 C.ar      1 <0>        -0.1130
     31 C24        -8.0954    1.6834    7.9044 C.ar      1 <0>        -0.1189
     32 C25        -8.4292    2.9016    8.4111 C.ar      1 <0>        -0.1051
     33 N5         -5.0112    6.2268    4.6557 N.am      1 <0>        -0.6913
     34 C26        -6.3114    6.5490    4.8041 C.2       1 <0>         0.6492
     35 O4         -7.1046    5.7125    5.1883 O.2       1 <0>        -0.5483
     36 O5         -6.7314    7.7977    4.5267 O.3       1 <0>        -0.3594
     37 C27        -8.1229    8.0691    4.7064 C.3       1 <0>         0.1320
     38 C28        -8.4046    9.5060    4.3499 C.ar      1 <0>        -0.0988
     39 C29        -8.3190   10.4880    5.3190 C.ar      1 <0>        -0.0936
     40 C30        -8.5774   11.8061    4.9920 C.ar      1 <0>        -0.1238
     41 C31        -8.9210   12.1421    3.6959 C.ar      1 <0>        -0.1081
     42 C32        -9.0056   11.1601    2.7266 C.ar      1 <0>        -0.1228
     43 C33        -8.7430    9.8427    3.0526 C.ar      1 <0>        -0.0935
     44 H1          1.1697   -1.2827   -1.3317 H         1 <0>         0.0565
     45 H2          0.3055    0.0521   -2.1316 H         1 <0>         0.0577
     46 H3          1.7332    0.3930   -1.1247 H         1 <0>         0.0556
     47 H4         -0.2894    0.9611    0.1331 H         1 <0>         0.0738
     48 H5         -1.0915   -1.9411   -0.3678 H         1 <0>         0.0577
     49 H6         -1.9771   -0.7804    0.6505 H         1 <0>         0.0562
     50 H7         -1.8540   -0.5114   -1.1048 H         1 <0>         0.0569
     51 H8          0.8386   -1.6947    1.1238 H         1 <0>         0.0900
     52 H9          1.6467   -0.1210    1.3210 H         1 <0>         0.0759
     53 H10        -1.1500   -0.7837    2.3462 H         1 <0>         0.1251
     54 H11         0.6904   -2.0152    3.7157 H         1 <0>         0.1040
     55 H12         0.3824    1.7017    2.3017 H         1 <0>         0.4071
     56 H13        -1.5312    3.5812    2.5632 H         1 <0>         0.1257
     57 H14        -0.2573    3.1904    5.3078 H         1 <0>         0.0830
     58 H15         0.6503    3.3243    3.7825 H         1 <0>         0.0865
     59 H16        -0.3813    7.9269    5.7468 H         1 <0>         0.4168
     60 H17        -0.1982    5.4658    6.5314 H         1 <0>         0.1671
     61 H18        -0.5724    8.0779    3.2011 H         1 <0>         0.2002
     62 H19        -3.0691    2.7014    4.8845 H         1 <0>         0.4077
     63 H20        -5.3299    4.1540    4.6814 H         1 <0>         0.1179
     64 H21        -3.8375    3.7674    6.6652 H         1 <0>         0.0905
     65 H22        -3.5509    5.5221    6.7483 H         1 <0>         0.0831
     66 H23        -5.2326    6.9881    7.5508 H         1 <0>         0.1110
     67 H24        -7.3116    7.3030    8.8220 H         1 <0>         0.1165
     68 H25        -8.8153    5.4325    9.2399 H         1 <0>         0.1221
     69 H26        -5.1606    2.3928    6.3924 H         1 <0>         0.1203
     70 H27        -6.6694    0.5251    6.8013 H         1 <0>         0.1217
     71 H28        -8.7489    0.8401    8.0724 H         1 <0>         0.1209
     72 H29        -9.3460    3.0249    8.9686 H         1 <0>         0.1239
     73 H30        -4.3780    6.8946    4.3491 H         1 <0>         0.4135
     74 H31        -8.7073    7.4133    4.0609 H         1 <0>         0.0758
     75 H32        -8.3961    7.8925    5.7467 H         1 <0>         0.0773
     76 H33        -8.0506   10.2255    6.3316 H         1 <0>         0.1235
     77 H34        -8.5113   12.5732    5.7493 H         1 <0>         0.1255
     78 H35        -9.1235   13.1717    3.4406 H         1 <0>         0.1248
     79 H36        -9.2743   11.4226    1.7140 H         1 <0>         0.1260
     80 H37        -8.8056    9.0760    2.2945 H         1 <0>         0.1243
@<TRIPOS>BOND
     1    1    2 1
     2    1   44 1
     3    1   45 1
     4    1   46 1
     5    2    3 1
     6    2    4 1
     7    2   47 1
     8    3   48 1
     9    3   49 1
    10    3   50 1
    11    4    5 1
    12    4   51 1
    13    4   52 1
    14    5    6 1
    15    5    8 1
    16    5   53 1
    17    6    7 2
    18    6   54 1
    19    8    9 am
    20    8   55 1
    21    9   10 2
    22    9   11 1
    23   11   12 1
    24   11   18 1
    25   11   56 1
    26   12   57 1
    27   12   58 1
    28   12   13 1
    29   13   14 2
    30   13   17 1
    31   14   15 1
    32   14   60 1
    33   15   16 1
    34   15   59 1
    35   16   61 1
    36   16   17 2
    37   18   19 am
    38   18   62 1
    39   19   20 2
    40   19   21 1
    41   21   22 1
    42   21   33 1
    43   21   63 1
    44   22   23 1
    45   22   64 1
    46   22   65 1
    47   23   28 ar
    48   23   24 ar
    49   24   25 ar
    50   24   66 1
    51   25   26 ar
    52   25   67 1
    53   26   27 ar
    54   26   68 1
    55   27   32 ar
    56   27   28 ar
    57   28   29 ar
    58   29   30 ar
    59   29   69 1
    60   30   31 ar
    61   30   70 1
    62   31   32 ar
    63   31   71 1
    64   32   72 1
    65   33   34 am
    66   33   73 1
    67   34   35 2
    68   34   36 1
    69   36   37 1
    70   37   38 1
    71   37   74 1
    72   37   75 1
    73   38   43 ar
    74   38   39 ar
    75   39   40 ar
    76   39   76 1
    77   40   41 ar
    78   40   77 1
    79   41   42 ar
    80   41   78 1
    81   42   43 ar
    82   42   79 1
    83   43   80 1
@<TRIPOS>MOLECULE
CHEMBL75438__18
   81    84     0     0     0
SMALL
USER_CHARGES

@<TRIPOS>ATOM
      1 C1         -1.4919   -0.2815   -0.1160 C.3       1 <0>        -0.1528
      2 C2          0.0170   -0.0913    0.0507 C.3       1 <0>        -0.0902
      3 C3          0.4972   -0.8723    1.2757 C.3       1 <0>        -0.1560
      4 C4          0.7370   -0.6066   -1.1970 C.3       1 <0>        -0.1208
      5 C5          2.2304   -0.2918   -1.0907 C.3       1 <0>         0.0749
      6 C6          2.9543   -0.8853   -2.2717 C.2       1 <0>         0.3288
      7 O1          3.5683   -0.1692   -3.0257 O.2       1 <0>        -0.4443
      8 N1          2.4237    1.1604   -1.0789 N.am      1 <0>        -0.7036
      9 C7          3.5233    1.6892   -0.5064 C.2       1 <0>         0.5167
     10 O2          4.3528    0.9629   -0.0011 O.2       1 <0>        -0.5156
     11 C8          3.7222    3.1829   -0.4943 C.3       1 <0>         0.1299
     12 C9          2.5622    3.8458    0.2514 C.3       1 <0>        -0.0707
     13 C10         2.6959    5.3440    0.1582 C.2       1 <0>         0.0390
     14 C11         2.2567    6.1162   -0.8539 C.2       1 <0>         0.0562
     15 N2          2.5808    7.4076   -0.5360 N.pl3     1 <0>        -0.4986
     16 C12         3.2071    7.3795    0.6600 C.cat     1 <0>         0.3065
     17 N3          3.2678    6.1426    1.0715 N.pl3     1 <0>        -0.4747
     18 N4          4.9826    3.5023    0.1807 N.am      1 <0>        -0.7073
     19 C13         5.6267    4.6517   -0.1033 C.2       1 <0>         0.5165
     20 O3          5.1628    5.4216   -0.9175 O.2       1 <0>        -0.5310
     21 C14         6.9233    4.9802    0.5910 C.3       1 <0>         0.1508
     22 C15         6.6894    5.0510    2.1013 C.3       1 <0>        -0.0860
     23 C16         8.0062    5.2575    2.8044 C.ar      1 <0>        -0.0777
     24 C17         8.6999    4.1896    3.2855 C.ar      1 <0>        -0.0888
     25 C18         9.9188    4.3610    3.9383 C.ar      1 <0>        -0.1113
     26 C19        10.4513    5.6014    4.1143 C.ar      1 <0>        -0.0936
     27 C20         9.7642    6.7277    3.6313 C.ar      1 <0>        -0.0468
     28 C21         8.5272    6.5529    2.9618 C.ar      1 <0>        -0.0233
     29 C22         7.8428    7.6793    2.4735 C.ar      1 <0>        -0.1294
     30 C23         8.3781    8.9187    2.6443 C.ar      1 <0>        -0.0997
     31 C24         9.5977    9.0901    3.2970 C.ar      1 <0>        -0.1271
     32 C25        10.2821    8.0241    3.7947 C.ar      1 <0>        -0.0947
     33 N5          7.4195    6.2730    0.1126 N.am      1 <0>        -0.6997
     34 C26         8.7363    6.5535    0.1729 C.2       1 <0>         0.6557
     35 O4          9.5120    5.7343    0.6242 O.2       1 <0>        -0.5433
     36 O5          9.1923    7.7416   -0.2667 O.3       1 <0>        -0.3533
     37 C27        10.5996    7.9715   -0.1727 C.3       1 <0>         0.1337
     38 C28        10.9214    9.3429   -0.7080 C.ar      1 <0>        -0.1004
     39 C29        11.2121    9.5107   -2.0489 C.ar      1 <0>        -0.0944
     40 C30        11.5074   10.7688   -2.5400 C.ar      1 <0>        -0.1217
     41 C31        11.5114   11.8590   -1.6902 C.ar      1 <0>        -0.1049
     42 C32        11.2198   11.6913   -0.3494 C.ar      1 <0>        -0.1233
     43 C33        10.9204   10.4340    0.1409 C.ar      1 <0>        -0.0933
     44 H1         -1.8486    0.3432   -0.9350 H         1 <0>         0.0558
     45 H2         -1.7040   -1.3274   -0.3379 H         1 <0>         0.0604
     46 H3         -1.9983    0.0042    0.8060 H         1 <0>         0.0590
     47 H4          0.2370    0.9677    0.1858 H         1 <0>         0.0674
     48 H5          0.2772   -1.9312    1.1406 H         1 <0>         0.0618
     49 H6          1.5722   -0.7367    1.3945 H         1 <0>         0.0553
     50 H7         -0.0157   -0.5051    2.1646 H         1 <0>         0.0581
     51 H8          0.5978   -1.6847   -1.2776 H         1 <0>         0.0957
     52 H9          0.3251   -0.1200   -2.0812 H         1 <0>         0.0776
     53 H10         2.6270   -0.7186   -0.1695 H         1 <0>         0.1293
     54 H11         2.9239   -1.9511   -2.4438 H         1 <0>         0.1106
     55 H12         1.7603    1.7412   -1.4830 H         1 <0>         0.4050
     56 H13         3.7546    3.5535   -1.5188 H         1 <0>         0.1311
     57 H14         1.6181    3.5367   -0.1971 H         1 <0>         0.1268
     58 H15         2.5833    3.5435    1.2984 H         1 <0>         0.1091
     59 H16         2.3952    8.1957   -1.0702 H         1 <0>         0.4670
     60 H17         1.7472    5.7810   -1.7452 H         1 <0>         0.2234
     61 H18         3.5904    8.2388    1.1902 H         1 <0>         0.2620
     62 H19         5.3537    2.8866    0.8319 H         1 <0>         0.4210
     63 H20         7.6585    4.2056    0.3731 H         1 <0>         0.1295
     64 H21         6.0225    5.8831    2.3271 H         1 <0>         0.0721
     65 H22         6.2372    4.1199    2.4430 H         1 <0>         0.0925
     66 H23         8.2991    3.1946    3.1596 H         1 <0>         0.1202
     67 H24        10.4490    3.4968    4.3105 H         1 <0>         0.1243
     68 H25        11.3968    5.7190    4.6228 H         1 <0>         0.1266
     69 H26         6.8972    7.5617    1.9652 H         1 <0>         0.1140
     70 H27         7.8502    9.7825    2.2682 H         1 <0>         0.1186
     71 H28        10.0006   10.0847    3.4190 H         1 <0>         0.1229
     72 H29        11.2256    8.1722    4.2989 H         1 <0>         0.1278
     73 H30         6.8002    6.9269   -0.2477 H         1 <0>         0.4083
     74 H31        10.9094    7.9066    0.8704 H         1 <0>         0.0778
     75 H32        11.1304    7.2197   -0.7567 H         1 <0>         0.0748
     76 H33        11.2089    8.6590   -2.7129 H         1 <0>         0.1231
     77 H34        11.7352   10.8998   -3.5875 H         1 <0>         0.1269
     78 H35        11.7428   12.8418   -2.0737 H         1 <0>         0.1264
     79 H36        11.2233   12.5431    0.3147 H         1 <0>         0.1264
     80 H37        10.6889   10.3035    1.1877 H         1 <0>         0.1236
     81 H38         3.6656    5.8471    1.9054 H         1 <0>         0.4577
@<TRIPOS>BOND
     1    1    2 1
     2    1   44 1
     3    1   45 1
     4    1   46 1
     5    2    3 1
     6    2    4 1
     7    2   47 1
     8    3   48 1
     9    3   49 1
    10    3   50 1
    11    4    5 1
    12    4   51 1
    13    4   52 1
    14    5    6 1
    15    5    8 1
    16    5   53 1
    17    6    7 2
    18    6   54 1
    19    8    9 am
    20    8   55 1
    21    9   10 2
    22    9   11 1
    23   11   12 1
    24   11   18 1
    25   11   56 1
    26   12   57 1
    27   12   58 1
    28   12   13 1
    29   13   14 2
    30   13   17 1
    31   14   15 1
    32   14   60 1
    33   15   16 1
    34   15   59 1
    35   16   61 1
    36   16   17 2
    37   17   81 1
    38   18   19 am
    39   18   62 1
    40   19   20 2
    41   19   21 1
    42   21   22 1
    43   21   33 1
    44   21   63 1
    45   22   23 1
    46   22   64 1
    47   22   65 1
    48   23   28 ar
    49   23   24 ar
    50   24   25 ar
    51   24   66 1
    52   25   26 ar
    53   25   67 1
    54   26   27 ar
    55   26   68 1
    56   27   32 ar
    57   27   28 ar
    58   28   29 ar
    59   29   30 ar
    60   29   69 1
    61   30   31 ar
    62   30   70 1
    63   31   32 ar
    64   31   71 1
    65   32   72 1
    66   33   34 am
    67   33   73 1
    68   34   35 2
    69   34   36 1
    70   36   37 1
    71   37   38 1
    72   37   74 1
    73   37   75 1
    74   38   43 ar
    75   38   39 ar
    76   39   40 ar
    77   39   76 1
    78   40   41 ar
    79   40   77 1
    80   41   42 ar
    81   41   78 1
    82   42   43 ar
    83   42   79 1
    84   43   80 1
@<TRIPOS>MOLECULE
CHEMBL75438__19
   80    83     0     0     0
SMALL
USER_CHARGES

@<TRIPOS>ATOM
      1 C1          0.8552   -0.2435   -1.2381 C.3       1 <0>        -0.1502
      2 C2         -0.0462   -0.0918   -0.0112 C.3       1 <0>        -0.0939
      3 C3         -1.3349   -0.8889   -0.2234 C.3       1 <0>        -0.1535
      4 C4          0.6827   -0.6207    1.2257 C.3       1 <0>        -0.1184
      5 C5         -0.1607   -0.3438    2.4719 C.3       1 <0>         0.0755
      6 C6          0.5097   -0.9512    3.6773 C.2       1 <0>         0.3272
      7 O1          0.8447   -0.2481    4.6001 O.2       1 <0>        -0.4421
      8 N1         -0.2901    1.1030    2.6624 N.am      1 <0>        -0.7069
      9 C7         -1.3436    1.6020    3.3389 C.2       1 <0>         0.5206
     10 O2         -2.1845    0.8534    3.7899 O.2       1 <0>        -0.5297
     11 C8         -1.4768    3.0903    3.5348 C.3       1 <0>         0.1356
     12 C9         -1.5532    3.7794    2.1709 C.3       1 <0>        -0.0488
     13 C10        -1.5627    5.2741    2.3632 C.2       1 <0>        -0.0178
     14 C11        -0.4871    6.0720    2.5051 C.2       1 <0>         0.0010
     15 N2         -0.9220    7.3324    2.6509 N.2       1 <0>        -0.4833
     16 C12        -2.2261    7.3459    2.6047 C.2       1 <0>         0.1907
     17 N3         -2.6658    6.0823    2.4211 N.pl3     1 <0>        -0.5641
     18 N4         -2.6962    3.3755    4.2951 N.am      1 <0>        -0.7096
     19 C13        -2.7900    4.5094    5.0176 C.2       1 <0>         0.5097
     20 O3         -1.8650    5.2935    5.0385 O.2       1 <0>        -0.4977
     21 C14        -4.0443    4.8028    5.7997 C.3       1 <0>         0.1566
     22 C15        -5.2366    4.8742    4.8435 C.3       1 <0>        -0.0897
     23 C16        -6.5068    5.0451    5.6363 C.ar      1 <0>        -0.0625
     24 C17        -7.2534    3.9585    5.9750 C.ar      1 <0>        -0.0987
     25 C18        -8.4305    4.0969    6.7075 C.ar      1 <0>        -0.1092
     26 C19        -8.8684    5.3229    7.1053 C.ar      1 <0>        -0.1026
     27 C20        -8.1243    6.4678    6.7744 C.ar      1 <0>        -0.0454
     28 C21        -6.9235    6.3264    6.0346 C.ar      1 <0>        -0.0247
     29 C22        -6.1763    7.4713    5.7086 C.ar      1 <0>        -0.1197
     30 C23        -6.6110    8.6963    6.1115 C.ar      1 <0>        -0.1055
     31 C24        -7.7884    8.8348    6.8446 C.ar      1 <0>        -0.1238
     32 C25        -8.5447    7.7502    7.1670 C.ar      1 <0>        -0.1036
     33 N5         -3.8981    6.0844    6.4944 N.am      1 <0>        -0.6952
     34 C26        -4.6128    6.3316    7.6099 C.2       1 <0>         0.6564
     35 O4         -5.3785    5.4915    8.0396 O.2       1 <0>        -0.5530
     36 O5         -4.4784    7.5093    8.2483 O.3       1 <0>        -0.3527
     37 C27        -5.2667    7.7035    9.4243 C.3       1 <0>         0.1330
     38 C28        -4.9853    9.0683    9.9980 C.ar      1 <0>        -0.0966
     39 C29        -3.9718    9.2335   10.9235 C.ar      1 <0>        -0.0941
     40 C30        -3.7137   10.4854   11.4498 C.ar      1 <0>        -0.1229
     41 C31        -4.4687   11.5722   11.0502 C.ar      1 <0>        -0.1079
     42 C32        -5.4816   11.4072   10.1241 C.ar      1 <0>        -0.1241
     43 C33        -5.7369   10.1561    9.5946 C.ar      1 <0>        -0.0924
     44 H1          1.1696   -1.2830   -1.3317 H         1 <0>         0.0572
     45 H2          0.3053    0.0516   -2.1317 H         1 <0>         0.0579
     46 H3          1.7330    0.3928   -1.1249 H         1 <0>         0.0561
     47 H4         -0.2896    0.9608    0.1329 H         1 <0>         0.0726
     48 H5         -1.0914   -1.9415   -0.3675 H         1 <0>         0.0584
     49 H6         -1.9771   -0.7808    0.6506 H         1 <0>         0.0561
     50 H7         -1.8541   -0.5121   -1.1046 H         1 <0>         0.0570
     51 H8          0.8388   -1.6946    1.1239 H         1 <0>         0.0912
     52 H9          1.6466   -0.1208    1.3209 H         1 <0>         0.0768
     53 H10        -1.1500   -0.7837    2.3462 H         1 <0>         0.1260
     54 H11         0.6904   -2.0152    3.7157 H         1 <0>         0.1054
     55 H12         0.3824    1.7017    2.3017 H         1 <0>         0.4068
     56 H13        -0.6115    3.4635    4.0825 H         1 <0>         0.1240
     57 H14        -0.6882    3.4956    1.5715 H         1 <0>         0.1005
     58 H15        -2.4658    3.4731    1.6597 H         1 <0>         0.0808
     59 H16        -3.5908    5.8000    2.3460 H         1 <0>         0.4103
     60 H17         0.5446    5.7529    2.5021 H         1 <0>         0.1613
     61 H18        -2.8501    8.2227    2.6948 H         1 <0>         0.2004
     62 H19        -3.4360    2.7484    4.2784 H         1 <0>         0.4111
     63 H20        -4.2109    4.0108    6.5298 H         1 <0>         0.1209
     64 H21        -5.1118    5.7219    4.1699 H         1 <0>         0.0793
     65 H22        -5.2920    3.9535    4.2626 H         1 <0>         0.0903
     66 H23        -6.9286    2.9743    5.6711 H         1 <0>         0.1189
     67 H24        -9.0043    3.2184    6.9631 H         1 <0>         0.1204
     68 H25        -9.7831    5.4150    7.6720 H         1 <0>         0.1227
     69 H26        -5.2616    7.3794    5.1418 H         1 <0>         0.1216
     70 H27        -6.0349    9.5745    5.8597 H         1 <0>         0.1197
     71 H28        -8.1108    9.8185    7.1523 H         1 <0>         0.1202
     72 H29        -9.4552    7.8728    7.7348 H         1 <0>         0.1242
     73 H30        -3.2869    6.7550    6.1514 H         1 <0>         0.4147
     74 H31        -6.3238    7.6273    9.1698 H         1 <0>         0.0764
     75 H32        -5.0144    6.9407   10.1609 H         1 <0>         0.0726
     76 H33        -3.3820    8.3844   11.2357 H         1 <0>         0.1231
     77 H34        -2.9224   10.6143   12.1734 H         1 <0>         0.1254
     78 H35        -4.2675   12.5502   11.4619 H         1 <0>         0.1243
     79 H36        -6.0717   12.2563    9.8122 H         1 <0>         0.1250
     80 H37        -6.5258   10.0278    8.8682 H         1 <0>         0.1242
@<TRIPOS>BOND
     1    1    2 1
     2    1   44 1
     3    1   45 1
     4    1   46 1
     5    2    3 1
     6    2    4 1
     7    2   47 1
     8    3   48 1
     9    3   49 1
    10    3   50 1
    11    4    5 1
    12    4   51 1
    13    4   52 1
    14    5    6 1
    15    5    8 1
    16    5   53 1
    17    6    7 2
    18    6   54 1
    19    8    9 am
    20    8   55 1
    21    9   10 2
    22    9   11 1
    23   11   12 1
    24   11   18 1
    25   11   56 1
    26   12   57 1
    27   12   58 1
    28   12   13 1
    29   13   14 2
    30   13   17 1
    31   14   15 1
    32   14   60 1
    33   15   16 2
    34   16   61 1
    35   16   17 1
    36   17   59 1
    37   18   19 am
    38   18   62 1
    39   19   20 2
    40   19   21 1
    41   21   22 1
    42   21   33 1
    43   21   63 1
    44   22   23 1
    45   22   64 1
    46   22   65 1
    47   23   28 ar
    48   23   24 ar
    49   24   25 ar
    50   24   66 1
    51   25   26 ar
    52   25   67 1
    53   26   27 ar
    54   26   68 1
    55   27   32 ar
    56   27   28 ar
    57   28   29 ar
    58   29   30 ar
    59   29   69 1
    60   30   31 ar
    61   30   70 1
    62   31   32 ar
    63   31   71 1
    64   32   72 1
    65   33   34 am
    66   33   73 1
    67   34   35 2
    68   34   36 1
    69   36   37 1
    70   37   38 1
    71   37   74 1
    72   37   75 1
    73   38   43 ar
    74   38   39 ar
    75   39   40 ar
    76   39   76 1
    77   40   41 ar
    78   40   77 1
    79   41   42 ar
    80   41   78 1
    81   42   43 ar
    82   42   79 1
    83   43   80 1
@<TRIPOS>MOLECULE
CHEMBL75438__20
   80    83     0     0     0
SMALL
USER_CHARGES

@<TRIPOS>ATOM
      1 C1          0.8552   -0.2435   -1.2381 C.3       1 <0>        -0.1497
      2 C2         -0.0462   -0.0918   -0.0112 C.3       1 <0>        -0.0940
      3 C3         -1.3349   -0.8889   -0.2234 C.3       1 <0>        -0.1535
      4 C4          0.6827   -0.6207    1.2257 C.3       1 <0>        -0.1176
      5 C5         -0.1607   -0.3438    2.4719 C.3       1 <0>         0.0755
      6 C6          0.5097   -0.9512    3.6773 C.2       1 <0>         0.3272
      7 O1          0.8447   -0.2481    4.6001 O.2       1 <0>        -0.4428
      8 N1         -0.2901    1.1030    2.6624 N.am      1 <0>        -0.7093
      9 C7         -1.3436    1.6020    3.3389 C.2       1 <0>         0.5193
     10 O2         -2.1845    0.8534    3.7899 O.2       1 <0>        -0.5302
     11 C8         -1.4768    3.0903    3.5348 C.3       1 <0>         0.1450
     12 C9         -1.5532    3.7794    2.1709 C.3       1 <0>        -0.0388
     13 C10        -1.5627    5.2741    2.3632 C.2       1 <0>         0.0041
     14 C11        -0.7079    6.1497    1.8008 C.2       1 <0>        -0.0504
     15 N2         -1.0712    7.3947    2.2387 N.pl3     1 <0>        -0.5695
     16 C12        -2.1360    7.2363    3.0540 C.2       1 <0>         0.1862
     17 N3         -2.4274    5.9660    3.1198 N.2       1 <0>        -0.4517
     18 N4         -2.6962    3.3755    4.2951 N.am      1 <0>        -0.7081
     19 C13        -2.7900    4.5094    5.0176 C.2       1 <0>         0.5456
     20 O3         -1.8650    5.2935    5.0385 O.2       1 <0>        -0.5093
     21 C14        -4.0443    4.8028    5.7997 C.3       1 <0>         0.1640
     22 C15        -5.2366    4.8742    4.8435 C.3       1 <0>        -0.0850
     23 C16        -6.5068    5.0451    5.6363 C.ar      1 <0>        -0.0559
     24 C17        -7.2534    3.9585    5.9750 C.ar      1 <0>        -0.1047
     25 C18        -8.4305    4.0969    6.7075 C.ar      1 <0>        -0.1067
     26 C19        -8.8684    5.3229    7.1053 C.ar      1 <0>        -0.1090
     27 C20        -8.1243    6.4678    6.7744 C.ar      1 <0>        -0.0446
     28 C21        -6.9235    6.3264    6.0346 C.ar      1 <0>        -0.0260
     29 C22        -6.1763    7.4713    5.7086 C.ar      1 <0>        -0.1135
     30 C23        -6.6110    8.6963    6.1115 C.ar      1 <0>        -0.1118
     31 C24        -7.7884    8.8348    6.8446 C.ar      1 <0>        -0.1244
     32 C25        -8.5447    7.7502    7.1670 C.ar      1 <0>        -0.1066
     33 N5         -3.8981    6.0844    6.4944 N.am      1 <0>        -0.6906
     34 C26        -4.6128    6.3316    7.6099 C.2       1 <0>         0.6536
     35 O4         -5.3785    5.4915    8.0396 O.2       1 <0>        -0.5548
     36 O5         -4.4784    7.5093    8.2483 O.3       1 <0>        -0.3555
     37 C27        -5.2667    7.7035    9.4243 C.3       1 <0>         0.1328
     38 C28        -4.9853    9.0683    9.9980 C.ar      1 <0>        -0.0946
     39 C29        -3.9718    9.2335   10.9235 C.ar      1 <0>        -0.0948
     40 C30        -3.7137   10.4854   11.4498 C.ar      1 <0>        -0.1236
     41 C31        -4.4687   11.5722   11.0502 C.ar      1 <0>        -0.1094
     42 C32        -5.4816   11.4072   10.1241 C.ar      1 <0>        -0.1244
     43 C33        -5.7369   10.1561    9.5946 C.ar      1 <0>        -0.0925
     44 H1          1.1696   -1.2830   -1.3317 H         1 <0>         0.0567
     45 H2          0.3053    0.0516   -2.1317 H         1 <0>         0.0577
     46 H3          1.7330    0.3928   -1.1249 H         1 <0>         0.0550
     47 H4         -0.2896    0.9608    0.1329 H         1 <0>         0.0735
     48 H5         -1.0914   -1.9415   -0.3675 H         1 <0>         0.0576
     49 H6         -1.9771   -0.7808    0.6506 H         1 <0>         0.0572
     50 H7         -1.8541   -0.5121   -1.1046 H         1 <0>         0.0571
     51 H8          0.8388   -1.6946    1.1239 H         1 <0>         0.0901
     52 H9          1.6466   -0.1208    1.3209 H         1 <0>         0.0753
     53 H10        -1.1500   -0.7837    2.3462 H         1 <0>         0.1258
     54 H11         0.6904   -2.0152    3.7157 H         1 <0>         0.1041
     55 H12         0.3824    1.7017    2.3017 H         1 <0>         0.4051
     56 H13        -0.6115    3.4635    4.0825 H         1 <0>         0.1142
     57 H14        -0.6882    3.4956    1.5715 H         1 <0>         0.0840
     58 H15        -2.4658    3.4731    1.6597 H         1 <0>         0.0833
     59 H16        -0.6436    8.2339    2.0067 H         1 <0>         0.4178
     60 H17         0.1076    5.9148    1.1329 H         1 <0>         0.1690
     61 H18        -2.6619    8.0300    3.5639 H         1 <0>         0.1967
     62 H19        -3.4360    2.7484    4.2784 H         1 <0>         0.4070
     63 H20        -4.2109    4.0108    6.5298 H         1 <0>         0.1113
     64 H21        -5.1118    5.7219    4.1699 H         1 <0>         0.0925
     65 H22        -5.2920    3.9535    4.2626 H         1 <0>         0.0870
     66 H23        -6.9286    2.9743    5.6711 H         1 <0>         0.1185
     67 H24        -9.0043    3.2184    6.9631 H         1 <0>         0.1186
     68 H25        -9.7831    5.4150    7.6720 H         1 <0>         0.1206
     69 H26        -5.2616    7.3794    5.1418 H         1 <0>         0.1262
     70 H27        -6.0349    9.5745    5.8597 H         1 <0>         0.1171
     71 H28        -8.1108    9.8185    7.1523 H         1 <0>         0.1178
     72 H29        -9.4552    7.8728    7.7348 H         1 <0>         0.1222
     73 H30        -3.2869    6.7550    6.1514 H         1 <0>         0.4126
     74 H31        -6.3238    7.6273    9.1698 H         1 <0>         0.0764
     75 H32        -5.0144    6.9407   10.1609 H         1 <0>         0.0718
     76 H33        -3.3820    8.3844   11.2357 H         1 <0>         0.1231
     77 H34        -2.9224   10.6143   12.1734 H         1 <0>         0.1246
     78 H35        -4.2675   12.5502   11.4619 H         1 <0>         0.1235
     79 H36        -6.0717   12.2563    9.8122 H         1 <0>         0.1245
     80 H37        -6.5258   10.0278    8.8682 H         1 <0>         0.1249
@<TRIPOS>BOND
     1    1    2 1
     2    1   44 1
     3    1   45 1
     4    1   46 1
     5    2    3 1
     6    2    4 1
     7    2   47 1
     8    3   48 1
     9    3   49 1
    10    3   50 1
    11    4    5 1
    12    4   51 1
    13    4   52 1
    14    5    6 1
    15    5    8 1
    16    5   53 1
    17    6    7 2
    18    6   54 1
    19    8    9 am
    20    8   55 1
    21    9   10 2
    22    9   11 1
    23   11   12 1
    24   11   18 1
    25   11   56 1
    26   12   57 1
    27   12   58 1
    28   12   13 1
    29   13   14 2
    30   13   17 1
    31   14   15 1
    32   14   60 1
    33   15   16 1
    34   15   59 1
    35   16   61 1
    36   16   17 2
    37   18   19 am
    38   18   62 1
    39   19   20 2
    40   19   21 1
    41   21   22 1
    42   21   33 1
    43   21   63 1
    44   22   23 1
    45   22   64 1
    46   22   65 1
    47   23   28 ar
    48   23   24 ar
    49   24   25 ar
    50   24   66 1
    51   25   26 ar
    52   25   67 1
    53   26   27 ar
    54   26   68 1
    55   27   32 ar
    56   27   28 ar
    57   28   29 ar
    58   29   30 ar
    59   29   69 1
    60   30   31 ar
    61   30   70 1
    62   31   32 ar
    63   31   71 1
    64   32   72 1
    65   33   34 am
    66   33   73 1
    67   34   35 2
    68   34   36 1
    69   36   37 1
    70   37   38 1
    71   37   74 1
    72   37   75 1
    73   38   43 ar
    74   38   39 ar
    75   39   40 ar
    76   39   76 1
    77   40   41 ar
    78   40   77 1
    79   41   42 ar
    80   41   78 1
    81   42   43 ar
    82   42   79 1
    83   43   80 1
@<TRIPOS>MOLECULE
CHEMBL75438__21
   81    84     0     0     0
SMALL
USER_CHARGES

@<TRIPOS>ATOM
      1 C1         -1.4919   -0.2815   -0.1160 C.3       1 <0>        -0.1528
      2 C2          0.0170   -0.0913    0.0507 C.3       1 <0>        -0.0903
      3 C3          0.4972   -0.8723    1.2757 C.3       1 <0>        -0.1560
      4 C4          0.7370   -0.6066   -1.1970 C.3       1 <0>        -0.1209
      5 C5          2.2304   -0.2918   -1.0907 C.3       1 <0>         0.0749
      6 C6          2.9543   -0.8853   -2.2717 C.2       1 <0>         0.3291
      7 O1          3.5683   -0.1692   -3.0257 O.2       1 <0>        -0.4444
      8 N1          2.4237    1.1604   -1.0789 N.am      1 <0>        -0.7035
      9 C7          3.5233    1.6892   -0.5064 C.2       1 <0>         0.5168
     10 O2          4.3528    0.9629   -0.0011 O.2       1 <0>        -0.5153
     11 C8          3.7222    3.1829   -0.4943 C.3       1 <0>         0.1299
     12 C9          2.5622    3.8458    0.2514 C.3       1 <0>        -0.0707
     13 C10         2.6959    5.3440    0.1582 C.2       1 <0>         0.0374
     14 C11         2.2567    6.1162   -0.8539 C.2       1 <0>         0.0550
     15 N2          2.5808    7.4076   -0.5360 N.pl3     1 <0>        -0.5001
     16 C12         3.2071    7.3795    0.6600 C.cat     1 <0>         0.3118
     17 N3          3.2678    6.1426    1.0715 N.pl3     1 <0>        -0.4737
     18 N4          4.9826    3.5023    0.1807 N.am      1 <0>        -0.7077
     19 C13         5.6267    4.6517   -0.1033 C.2       1 <0>         0.5154
     20 O3          5.1628    5.4216   -0.9175 O.2       1 <0>        -0.5304
     21 C14         6.9233    4.9802    0.5910 C.3       1 <0>         0.1546
     22 C15         7.9553    3.8929    0.2851 C.3       1 <0>        -0.0933
     23 C16         9.2110    4.1554    1.0759 C.ar      1 <0>        -0.0654
     24 C17        10.2425    4.8432    0.5137 C.ar      1 <0>        -0.1010
     25 C18        11.4111    5.0954    1.2292 C.ar      1 <0>        -0.1141
     26 C19        11.5555    4.6611    2.5112 C.ar      1 <0>        -0.0947
     27 C20        10.5122    3.9479    3.1252 C.ar      1 <0>        -0.0445
     28 C21         9.3209    3.6967    2.3994 C.ar      1 <0>        -0.0228
     29 C22         8.2750    2.9883    3.0157 C.ar      1 <0>        -0.1199
     30 C23         8.4172    2.5593    4.2993 C.ar      1 <0>        -0.1081
     31 C24         9.5861    2.8120    5.0153 C.ar      1 <0>        -0.1212
     32 C25        10.6248    3.4831    4.4468 C.ar      1 <0>        -0.0976
     33 N5          7.4195    6.2730    0.1126 N.am      1 <0>        -0.6995
     34 C26         8.2364    7.0108    0.8901 C.2       1 <0>         0.6468
     35 O4          8.5614    6.6038    1.9879 O.2       1 <0>        -0.5407
     36 O5          8.6924    8.1989    0.4504 O.3       1 <0>        -0.3579
     37 C27         9.5544    8.9275    1.3268 C.3       1 <0>         0.1335
     38 C28         9.9608   10.2216    0.6702 C.ar      1 <0>        -0.1046
     39 C29        11.0950   10.2701   -0.1186 C.ar      1 <0>        -0.0920
     40 C30        11.4678   11.4571   -0.7210 C.ar      1 <0>        -0.1205
     41 C31        10.7062   12.5956   -0.5348 C.ar      1 <0>        -0.1038
     42 C32         9.5715   12.5470    0.2533 C.ar      1 <0>        -0.1232
     43 C33         9.1963   11.3589    0.8521 C.ar      1 <0>        -0.0957
     44 H1         -1.8486    0.3432   -0.9350 H         1 <0>         0.0558
     45 H2         -1.7040   -1.3274   -0.3379 H         1 <0>         0.0605
     46 H3         -1.9983    0.0042    0.8060 H         1 <0>         0.0590
     47 H4          0.2370    0.9677    0.1858 H         1 <0>         0.0674
     48 H5          0.2772   -1.9312    1.1406 H         1 <0>         0.0618
     49 H6          1.5722   -0.7367    1.3945 H         1 <0>         0.0554
     50 H7         -0.0157   -0.5051    2.1646 H         1 <0>         0.0581
     51 H8          0.5978   -1.6847   -1.2776 H         1 <0>         0.0956
     52 H9          0.3251   -0.1200   -2.0812 H         1 <0>         0.0776
     53 H10         2.6270   -0.7186   -0.1695 H         1 <0>         0.1293
     54 H11         2.9239   -1.9511   -2.4438 H         1 <0>         0.1105
     55 H12         1.7603    1.7412   -1.4830 H         1 <0>         0.4050
     56 H13         3.7546    3.5535   -1.5188 H         1 <0>         0.1316
     57 H14         1.6181    3.5367   -0.1971 H         1 <0>         0.1267
     58 H15         2.5833    3.5435    1.2984 H         1 <0>         0.1086
     59 H16         2.3952    8.1957   -1.0702 H         1 <0>         0.4665
     60 H17         1.7472    5.7810   -1.7452 H         1 <0>         0.2232
     61 H18         3.5904    8.2388    1.1902 H         1 <0>         0.2607
     62 H19         5.3537    2.8866    0.8319 H         1 <0>         0.4200
     63 H20         6.7566    5.0306    1.6670 H         1 <0>         0.1223
     64 H21         7.5497    2.9193    0.5600 H         1 <0>         0.0938
     65 H22         8.1880    3.9021   -0.7797 H         1 <0>         0.0882
     66 H23        10.1538    5.1982   -0.5024 H         1 <0>         0.1128
     67 H24        12.2145    5.6434    0.7596 H         1 <0>         0.1199
     68 H25        12.4673    4.8634    3.0535 H         1 <0>         0.1257
     69 H26         7.3632    2.7857    2.4735 H         1 <0>         0.1150
     70 H27         7.6120    2.0152    4.7705 H         1 <0>         0.1212
     71 H28         9.6730    2.4607    6.0328 H         1 <0>         0.1236
     72 H29        11.5248    3.6709    5.0135 H         1 <0>         0.1272
     73 H30         7.1600    6.5978   -0.7638 H         1 <0>         0.4144
     74 H31         9.0293    9.1417    2.2577 H         1 <0>         0.0764
     75 H32        10.4430    8.3332    1.5394 H         1 <0>         0.0799
     76 H33        11.6900    9.3806   -0.2641 H         1 <0>         0.1246
     77 H34        12.3542   11.4951   -1.3367 H         1 <0>         0.1283
     78 H35        10.9978   13.5232   -1.0048 H         1 <0>         0.1274
     79 H36         8.9767   13.4366    0.3990 H         1 <0>         0.1267
     80 H37         8.3078   11.3200    1.4648 H         1 <0>         0.1214
     81 H38         3.6656    5.8471    1.9054 H         1 <0>         0.4588
@<TRIPOS>BOND
     1    1    2 1
     2    1   44 1
     3    1   45 1
     4    1   46 1
     5    2    3 1
     6    2    4 1
     7    2   47 1
     8    3   48 1
     9    3   49 1
    10    3   50 1
    11    4    5 1
    12    4   51 1
    13    4   52 1
    14    5    6 1
    15    5    8 1
    16    5   53 1
    17    6    7 2
    18    6   54 1
    19    8    9 am
    20    8   55 1
    21    9   10 2
    22    9   11 1
    23   11   12 1
    24   11   18 1
    25   11   56 1
    26   12   57 1
    27   12   58 1
    28   12   13 1
    29   13   14 2
    30   13   17 1
    31   14   15 1
    32   14   60 1
    33   15   16 1
    34   15   59 1
    35   16   61 1
    36   16   17 2
    37   17   81 1
    38   18   19 am
    39   18   62 1
    40   19   20 2
    41   19   21 1
    42   21   22 1
    43   21   33 1
    44   21   63 1
    45   22   23 1
    46   22   64 1
    47   22   65 1
    48   23   28 ar
    49   23   24 ar
    50   24   25 ar
    51   24   66 1
    52   25   26 ar
    53   25   67 1
    54   26   27 ar
    55   26   68 1
    56   27   32 ar
    57   27   28 ar
    58   28   29 ar
    59   29   30 ar
    60   29   69 1
    61   30   31 ar
    62   30   70 1
    63   31   32 ar
    64   31   71 1
    65   32   72 1
    66   33   34 am
    67   33   73 1
    68   34   35 2
    69   34   36 1
    70   36   37 1
    71   37   38 1
    72   37   74 1
    73   37   75 1
    74   38   43 ar
    75   38   39 ar
    76   39   40 ar
    77   39   76 1
    78   40   41 ar
    79   40   77 1
    80   41   42 ar
    81   41   78 1
    82   42   43 ar
    83   42   79 1
    84   43   80 1
@<TRIPOS>MOLECULE
CHEMBL75438__22
   80    83     0     0     0
SMALL
USER_CHARGES

@<TRIPOS>ATOM
      1 C1          0.8552   -0.2435   -1.2381 C.3       1 <0>        -0.1502
      2 C2         -0.0462   -0.0918   -0.0112 C.3       1 <0>        -0.0940
      3 C3         -1.3349   -0.8889   -0.2234 C.3       1 <0>        -0.1535
      4 C4          0.6827   -0.6207    1.2257 C.3       1 <0>        -0.1184
      5 C5         -0.1607   -0.3438    2.4719 C.3       1 <0>         0.0755
      6 C6          0.5097   -0.9512    3.6773 C.2       1 <0>         0.3276
      7 O1          0.8447   -0.2481    4.6001 O.2       1 <0>        -0.4422
      8 N1         -0.2901    1.1030    2.6624 N.am      1 <0>        -0.7068
      9 C7         -1.3436    1.6020    3.3389 C.2       1 <0>         0.5209
     10 O2         -2.1845    0.8534    3.7899 O.2       1 <0>        -0.5295
     11 C8         -1.4768    3.0903    3.5348 C.3       1 <0>         0.1356
     12 C9         -1.5532    3.7794    2.1709 C.3       1 <0>        -0.0488
     13 C10        -1.5627    5.2741    2.3632 C.2       1 <0>        -0.0201
     14 C11        -0.4871    6.0720    2.5051 C.2       1 <0>         0.0006
     15 N2         -0.9220    7.3324    2.6509 N.2       1 <0>        -0.4852
     16 C12        -2.2261    7.3459    2.6047 C.2       1 <0>         0.1950
     17 N3         -2.6658    6.0823    2.4211 N.pl3     1 <0>        -0.5632
     18 N4         -2.6962    3.3755    4.2951 N.am      1 <0>        -0.7099
     19 C13        -2.7900    4.5094    5.0176 C.2       1 <0>         0.5092
     20 O3         -1.8650    5.2935    5.0385 O.2       1 <0>        -0.4969
     21 C14        -4.0443    4.8028    5.7997 C.3       1 <0>         0.1589
     22 C15        -4.2782    3.6910    6.8245 C.3       1 <0>        -0.0948
     23 C16        -5.5947    3.9192    7.5215 C.ar      1 <0>        -0.0545
     24 C17        -5.6339    4.5828    8.7095 C.ar      1 <0>        -0.1061
     25 C18        -6.8415    4.8031    9.3686 C.ar      1 <0>        -0.1104
     26 C19        -8.0172    4.3608    8.8439 C.ar      1 <0>        -0.1023
     27 C20        -8.0165    3.6719    7.6195 C.ar      1 <0>        -0.0433
     28 C21        -6.7886    3.4532    6.9458 C.ar      1 <0>        -0.0237
     29 C22        -6.7887    2.7691    5.7180 C.ar      1 <0>        -0.1120
     30 C23        -7.9648    2.3322    5.1908 C.ar      1 <0>        -0.1136
     31 C24        -9.1729    2.5530    5.8500 C.ar      1 <0>        -0.1205
     32 C25        -9.2101    3.1998    7.0469 C.ar      1 <0>        -0.1029
     33 N5         -3.8981    6.0844    6.4944 N.am      1 <0>        -0.6928
     34 C26        -4.9912    6.7988    6.8277 C.2       1 <0>         0.6504
     35 O4         -6.0981    6.3799    6.5521 O.2       1 <0>        -0.5498
     36 O5         -4.8568    7.9765    7.4661 O.3       1 <0>        -0.3573
     37 C27        -6.0579    8.6803    7.7888 C.3       1 <0>         0.1327
     38 C28        -5.7125    9.9660    8.4949 C.ar      1 <0>        -0.1000
     39 C29        -5.5968    9.9887    9.8722 C.ar      1 <0>        -0.0931
     40 C30        -5.2800   11.1682   10.5198 C.ar      1 <0>        -0.1234
     41 C31        -5.0783   12.3248    9.7901 C.ar      1 <0>        -0.1074
     42 C32        -5.1931   12.3019    8.4127 C.ar      1 <0>        -0.1228
     43 C33        -5.5057   11.1215    7.7648 C.ar      1 <0>        -0.0932
     44 H1          1.1696   -1.2830   -1.3317 H         1 <0>         0.0572
     45 H2          0.3053    0.0516   -2.1317 H         1 <0>         0.0578
     46 H3          1.7330    0.3928   -1.1249 H         1 <0>         0.0561
     47 H4         -0.2896    0.9608    0.1329 H         1 <0>         0.0726
     48 H5         -1.0914   -1.9415   -0.3675 H         1 <0>         0.0584
     49 H6         -1.9771   -0.7808    0.6506 H         1 <0>         0.0561
     50 H7         -1.8541   -0.5121   -1.1046 H         1 <0>         0.0570
     51 H8          0.8388   -1.6946    1.1239 H         1 <0>         0.0912
     52 H9          1.6466   -0.1208    1.3209 H         1 <0>         0.0768
     53 H10        -1.1500   -0.7837    2.3462 H         1 <0>         0.1260
     54 H11         0.6904   -2.0152    3.7157 H         1 <0>         0.1052
     55 H12         0.3824    1.7017    2.3017 H         1 <0>         0.4069
     56 H13        -0.6115    3.4635    4.0825 H         1 <0>         0.1246
     57 H14        -0.6882    3.4956    1.5715 H         1 <0>         0.1005
     58 H15        -2.4658    3.4731    1.6597 H         1 <0>         0.0804
     59 H16        -3.5908    5.8000    2.3460 H         1 <0>         0.4112
     60 H17         0.5446    5.7529    2.5021 H         1 <0>         0.1614
     61 H18        -2.8501    8.2227    2.6948 H         1 <0>         0.1991
     62 H19        -3.4360    2.7484    4.2784 H         1 <0>         0.4099
     63 H20        -4.8937    4.8536    5.1185 H         1 <0>         0.1165
     64 H21        -4.2984    2.7269    6.3164 H         1 <0>         0.0928
     65 H22        -3.4724    3.6981    7.5585 H         1 <0>         0.0869
     66 H23        -4.7152    4.9435    9.1478 H         1 <0>         0.1134
     67 H24        -6.8449    5.3324   10.3100 H         1 <0>         0.1178
     68 H25        -8.9456    4.5383    9.3664 H         1 <0>         0.1228
     69 H26        -5.8604    2.5914    5.1956 H         1 <0>         0.1182
     70 H27        -7.9620    1.8069    4.2472 H         1 <0>         0.1204
     71 H28       -10.0921    2.1961    5.4095 H         1 <0>         0.1208
     72 H29       -10.1535    3.3629    7.5466 H         1 <0>         0.1243
     73 H30        -3.0145    6.4187    6.7144 H         1 <0>         0.4162
     74 H31        -6.6050    8.9043    6.8731 H         1 <0>         0.0753
     75 H32        -6.6769    8.0631    8.4401 H         1 <0>         0.0772
     76 H33        -5.7544    9.0851   10.4423 H         1 <0>         0.1237
     77 H34        -5.1903   11.1861   11.5960 H         1 <0>         0.1258
     78 H35        -4.8315   13.2464   10.2962 H         1 <0>         0.1250
     79 H36        -5.0359   13.2056    7.8427 H         1 <0>         0.1261
     80 H37        -5.5918   11.1028    6.6884 H         1 <0>         0.1238
@<TRIPOS>BOND
     1    1    2 1
     2    1   44 1
     3    1   45 1
     4    1   46 1
     5    2    3 1
     6    2    4 1
     7    2   47 1
     8    3   48 1
     9    3   49 1
    10    3   50 1
    11    4    5 1
    12    4   51 1
    13    4   52 1
    14    5    6 1
    15    5    8 1
    16    5   53 1
    17    6    7 2
    18    6   54 1
    19    8    9 am
    20    8   55 1
    21    9   10 2
    22    9   11 1
    23   11   12 1
    24   11   18 1
    25   11   56 1
    26   12   57 1
    27   12   58 1
    28   12   13 1
    29   13   14 2
    30   13   17 1
    31   14   15 1
    32   14   60 1
    33   15   16 2
    34   16   61 1
    35   16   17 1
    36   17   59 1
    37   18   19 am
    38   18   62 1
    39   19   20 2
    40   19   21 1
    41   21   22 1
    42   21   33 1
    43   21   63 1
    44   22   23 1
    45   22   64 1
    46   22   65 1
    47   23   28 ar
    48   23   24 ar
    49   24   25 ar
    50   24   66 1
    51   25   26 ar
    52   25   67 1
    53   26   27 ar
    54   26   68 1
    55   27   32 ar
    56   27   28 ar
    57   28   29 ar
    58   29   30 ar
    59   29   69 1
    60   30   31 ar
    61   30   70 1
    62   31   32 ar
    63   31   71 1
    64   32   72 1
    65   33   34 am
    66   33   73 1
    67   34   35 2
    68   34   36 1
    69   36   37 1
    70   37   38 1
    71   37   74 1
    72   37   75 1
    73   38   43 ar
    74   38   39 ar
    75   39   40 ar
    76   39   76 1
    77   40   41 ar
    78   40   77 1
    79   41   42 ar
    80   41   78 1
    81   42   43 ar
    82   42   79 1
    83   43   80 1
@<TRIPOS>MOLECULE
CHEMBL75438__23
   80    83     0     0     0
SMALL
USER_CHARGES

@<TRIPOS>ATOM
      1 C1          0.8552   -0.2435   -1.2381 C.3       1 <0>        -0.1497
      2 C2         -0.0462   -0.0918   -0.0112 C.3       1 <0>        -0.0942
      3 C3         -1.3349   -0.8889   -0.2234 C.3       1 <0>        -0.1535
      4 C4          0.6827   -0.6207    1.2257 C.3       1 <0>        -0.1177
      5 C5         -0.1607   -0.3438    2.4719 C.3       1 <0>         0.0755
      6 C6          0.5097   -0.9512    3.6773 C.2       1 <0>         0.3275
      7 O1          0.8447   -0.2481    4.6001 O.2       1 <0>        -0.4428
      8 N1         -0.2901    1.1030    2.6624 N.am      1 <0>        -0.7092
      9 C7         -1.3436    1.6020    3.3389 C.2       1 <0>         0.5197
     10 O2         -2.1845    0.8534    3.7899 O.2       1 <0>        -0.5300
     11 C8         -1.4768    3.0903    3.5348 C.3       1 <0>         0.1450
     12 C9         -1.5532    3.7794    2.1709 C.3       1 <0>        -0.0392
     13 C10        -1.5627    5.2741    2.3632 C.2       1 <0>         0.0019
     14 C11        -0.7079    6.1497    1.8008 C.2       1 <0>        -0.0520
     15 N2         -1.0712    7.3947    2.2387 N.pl3     1 <0>        -0.5705
     16 C12        -2.1360    7.2363    3.0540 C.2       1 <0>         0.1912
     17 N3         -2.4274    5.9660    3.1198 N.2       1 <0>        -0.4520
     18 N4         -2.6962    3.3755    4.2951 N.am      1 <0>        -0.7085
     19 C13        -2.7900    4.5094    5.0176 C.2       1 <0>         0.5462
     20 O3         -1.8650    5.2935    5.0385 O.2       1 <0>        -0.5087
     21 C14        -4.0443    4.8028    5.7997 C.3       1 <0>         0.1654
     22 C15        -4.2782    3.6910    6.8245 C.3       1 <0>        -0.0978
     23 C16        -5.5947    3.9192    7.5215 C.ar      1 <0>        -0.0493
     24 C17        -5.6339    4.5828    8.7095 C.ar      1 <0>        -0.1098
     25 C18        -6.8415    4.8031    9.3686 C.ar      1 <0>        -0.1100
     26 C19        -8.0172    4.3608    8.8439 C.ar      1 <0>        -0.1053
     27 C20        -8.0165    3.6719    7.6195 C.ar      1 <0>        -0.0428
     28 C21        -6.7886    3.4532    6.9458 C.ar      1 <0>        -0.0243
     29 C22        -6.7887    2.7691    5.7180 C.ar      1 <0>        -0.1076
     30 C23        -7.9648    2.3322    5.1908 C.ar      1 <0>        -0.1157
     31 C24        -9.1729    2.5530    5.8500 C.ar      1 <0>        -0.1195
     32 C25        -9.2101    3.1998    7.0469 C.ar      1 <0>        -0.1059
     33 N5         -3.8981    6.0844    6.4944 N.am      1 <0>        -0.6872
     34 C26        -4.9912    6.7988    6.8277 C.2       1 <0>         0.6491
     35 O4         -6.0981    6.3799    6.5521 O.2       1 <0>        -0.5498
     36 O5         -4.8568    7.9765    7.4661 O.3       1 <0>        -0.3610
     37 C27        -6.0579    8.6803    7.7888 C.3       1 <0>         0.1324
     38 C28        -5.7125    9.9660    8.4949 C.ar      1 <0>        -0.0976
     39 C29        -5.5968    9.9887    9.8722 C.ar      1 <0>        -0.0932
     40 C30        -5.2800   11.1682   10.5198 C.ar      1 <0>        -0.1233
     41 C31        -5.0783   12.3248    9.7901 C.ar      1 <0>        -0.1089
     42 C32        -5.1931   12.3019    8.4127 C.ar      1 <0>        -0.1237
     43 C33        -5.5057   11.1215    7.7648 C.ar      1 <0>        -0.0943
     44 H1          1.1696   -1.2830   -1.3317 H         1 <0>         0.0568
     45 H2          0.3053    0.0516   -2.1317 H         1 <0>         0.0577
     46 H3          1.7330    0.3928   -1.1249 H         1 <0>         0.0550
     47 H4         -0.2896    0.9608    0.1329 H         1 <0>         0.0735
     48 H5         -1.0914   -1.9415   -0.3675 H         1 <0>         0.0577
     49 H6         -1.9771   -0.7808    0.6506 H         1 <0>         0.0572
     50 H7         -1.8541   -0.5121   -1.1046 H         1 <0>         0.0570
     51 H8          0.8388   -1.6946    1.1239 H         1 <0>         0.0901
     52 H9          1.6466   -0.1208    1.3209 H         1 <0>         0.0753
     53 H10        -1.1500   -0.7837    2.3462 H         1 <0>         0.1259
     54 H11         0.6904   -2.0152    3.7157 H         1 <0>         0.1040
     55 H12         0.3824    1.7017    2.3017 H         1 <0>         0.4052
     56 H13        -0.6115    3.4635    4.0825 H         1 <0>         0.1150
     57 H14        -0.6882    3.4956    1.5715 H         1 <0>         0.0844
     58 H15        -2.4658    3.4731    1.6597 H         1 <0>         0.0828
     59 H16        -0.6436    8.2339    2.0067 H         1 <0>         0.4175
     60 H17         0.1076    5.9148    1.1329 H         1 <0>         0.1694
     61 H18        -2.6619    8.0300    3.5639 H         1 <0>         0.1961
     62 H19        -3.4360    2.7484    4.2784 H         1 <0>         0.4058
     63 H20        -4.8937    4.8536    5.1185 H         1 <0>         0.1180
     64 H21        -4.2984    2.7269    6.3164 H         1 <0>         0.0920
     65 H22        -3.4724    3.6981    7.5585 H         1 <0>         0.0840
     66 H23        -4.7152    4.9435    9.1478 H         1 <0>         0.1126
     67 H24        -6.8449    5.3324   10.3100 H         1 <0>         0.1161
     68 H25        -8.9456    4.5383    9.3664 H         1 <0>         0.1213
     69 H26        -5.8604    2.5914    5.1956 H         1 <0>         0.1207
     70 H27        -7.9620    1.8069    4.2472 H         1 <0>         0.1203
     71 H28       -10.0921    2.1961    5.4095 H         1 <0>         0.1198
     72 H29       -10.1535    3.3629    7.5466 H         1 <0>         0.1230
     73 H30        -3.0145    6.4187    6.7144 H         1 <0>         0.4126
     74 H31        -6.6050    8.9043    6.8731 H         1 <0>         0.0750
     75 H32        -6.6769    8.0631    8.4401 H         1 <0>         0.0768
     76 H33        -5.7544    9.0851   10.4423 H         1 <0>         0.1241
     77 H34        -5.1903   11.1861   11.5960 H         1 <0>         0.1255
     78 H35        -4.8315   13.2464   10.2962 H         1 <0>         0.1243
     79 H36        -5.0359   13.2056    7.8427 H         1 <0>         0.1251
     80 H37        -5.5918   11.1028    6.6884 H         1 <0>         0.1236
@<TRIPOS>BOND
     1    1    2 1
     2    1   44 1
     3    1   45 1
     4    1   46 1
     5    2    3 1
     6    2    4 1
     7    2   47 1
     8    3   48 1
     9    3   49 1
    10    3   50 1
    11    4    5 1
    12    4   51 1
    13    4   52 1
    14    5    6 1
    15    5    8 1
    16    5   53 1
    17    6    7 2
    18    6   54 1
    19    8    9 am
    20    8   55 1
    21    9   10 2
    22    9   11 1
    23   11   12 1
    24   11   18 1
    25   11   56 1
    26   12   57 1
    27   12   58 1
    28   12   13 1
    29   13   14 2
    30   13   17 1
    31   14   15 1
    32   14   60 1
    33   15   16 1
    34   15   59 1
    35   16   61 1
    36   16   17 2
    37   18   19 am
    38   18   62 1
    39   19   20 2
    40   19   21 1
    41   21   22 1
    42   21   33 1
    43   21   63 1
    44   22   23 1
    45   22   64 1
    46   22   65 1
    47   23   28 ar
    48   23   24 ar
    49   24   25 ar
    50   24   66 1
    51   25   26 ar
    52   25   67 1
    53   26   27 ar
    54   26   68 1
    55   27   32 ar
    56   27   28 ar
    57   28   29 ar
    58   29   30 ar
    59   29   69 1
    60   30   31 ar
    61   30   70 1
    62   31   32 ar
    63   31   71 1
    64   32   72 1
    65   33   34 am
    66   33   73 1
    67   34   35 2
    68   34   36 1
    69   36   37 1
    70   37   38 1
    71   37   74 1
    72   37   75 1
    73   38   43 ar
    74   38   39 ar
    75   39   40 ar
    76   39   76 1
    77   40   41 ar
    78   40   77 1
    79   41   42 ar
    80   41   78 1
    81   42   43 ar
    82   42   79 1
    83   43   80 1
@<TRIPOS>MOLECULE
CHEMBL56095
   81    84     0     0     0
SMALL
USER_CHARGES

@<TRIPOS>ATOM
      1 C1         -0.0187    1.5258    0.0104 C.3       1 <0>        -0.1563
      2 C2          0.0021   -0.0041    0.0020 C.3       1 <0>        -0.1285
      3 C3          0.7182   -0.4975   -1.2568 C.3       1 <0>        -0.1455
      4 C4          0.7421   -0.5109    1.2415 C.3       1 <0>         0.1142
      5 H1          0.8346   -1.5958    1.1912 H         1 <0>         0.1052
      6 C5         -0.0416   -0.1236    2.4973 C.3       1 <0>        -0.1851
      7 C6          0.6310   -0.7363    3.7274 C.3       1 <0>         0.1041
      8 H2          1.6777   -0.4337    3.7577 H         1 <0>         0.1196
      9 C7         -0.0779   -0.2483    4.9924 C.3       1 <0>         0.1130
     10 H3         -0.0153    0.8385    5.0476 H         1 <0>         0.1017
     11 C8          0.5947   -0.8610    6.2225 C.3       1 <0>        -0.1219
     12 C9         -0.0322   -0.2774    7.4903 C.3       1 <0>        -0.0812
     13 C10         0.2715    1.2202    7.5666 C.3       1 <0>        -0.1046
     14 C11        -0.3554    1.8037    8.8344 C.3       1 <0>        -0.1110
     15 C12         0.2287    1.1016   10.0619 C.3       1 <0>        -0.1209
     16 C13        -0.0751   -0.3960    9.9855 C.3       1 <0>        -0.1167
     17 C14         0.5518   -0.9795    8.7178 C.3       1 <0>        -0.1153
     18 N1         -1.4847   -0.6550    4.9516 N.am      1 <0>        -0.7169
     19 C15        -2.4079    0.0418    5.6434 C.2       1 <0>         0.5125
     20 O1         -2.0741    1.0055    6.2996 O.2       1 <0>        -0.5141
     21 C16        -3.8551   -0.3766    5.6014 C.3       1 <0>         0.1389
     22 H4         -3.9508   -1.3927    5.9842 H         1 <0>         0.1272
     23 C17        -4.3590   -0.3259    4.1577 C.3       1 <0>        -0.0378
     24 C18        -5.7667   -0.8605    4.0979 C.2       1 <0>         0.0035
     25 C19        -6.8350   -0.2209    3.5848 C.2       1 <0>        -0.0561
     26 N2         -7.9068   -1.0595    3.7315 N.pl3     1 <0>        -0.5702
     27 H5         -8.8198   -0.8801    3.4571 H         1 <0>         0.4179
     28 C20        -7.4559   -2.1832    4.3295 C.2       1 <0>         0.1953
     29 N3         -6.1742   -2.0590    4.5411 N.2       1 <0>        -0.4534
     30 N4         -4.6508    0.5337    6.4286 N.am      1 <0>        -0.7083
     31 C21        -5.8182    0.1170    6.9578 C.2       1 <0>         0.5558
     32 O2         -6.2109   -1.0147    6.7487 O.2       1 <0>        -0.4775
     33 C22        -6.6191    1.0333    7.7905 C.2       1 <0>         0.0856
     34 C23        -7.7877    0.5904    8.3171 C.2       1 <0>        -0.1062
     35 C24        -8.5896    1.4914    9.1449 C.ar      1 <0>        -0.0133
     36 C25        -9.7997    1.0875    9.7120 C.ar      1 <0>        -0.1124
     37 C26       -10.5174    1.9743   10.4846 C.ar      1 <0>        -0.0845
     38 C27       -10.0499    3.2630   10.7037 C.ar      1 <0>        -0.1257
     39 C28        -8.8577    3.6832   10.1531 C.ar      1 <0>        -0.0517
     40 C29        -8.1142    2.8041    9.3692 C.ar      1 <0>        -0.1397
     41 C30        -6.8368    3.2013    8.7599 C.2       1 <0>         0.5523
     42 N5         -6.1539    2.3112    8.0138 N.am      1 <0>        -0.6288
     43 O3         -6.3976    4.3237    8.9316 O.2       1 <0>        -0.5194
     44 O4          0.5490   -2.1611    3.6550 O.3       1 <0>        -0.5475
     45 O5          2.0438    0.0763    1.2925 O.3       1 <0>        -0.5561
     46 H6          1.0039    1.9031    0.0027 H         1 <0>         0.0579
     47 H7         -0.5459    1.8868   -0.8726 H         1 <0>         0.0594
     48 H8         -0.5289    1.8773    0.9072 H         1 <0>         0.0566
     49 H9         -1.0205   -0.3814    0.0098 H         1 <0>         0.0758
     50 H10         1.7408   -0.1202   -1.2645 H         1 <0>         0.0614
     51 H11         0.7330   -1.5874   -1.2628 H         1 <0>         0.0546
     52 H12         0.1910   -0.1364   -2.1398 H         1 <0>         0.0530
     53 H13        -0.0580    0.9619    2.5950 H         1 <0>         0.0793
     54 H14        -1.0627   -0.4967    2.4178 H         1 <0>         0.0757
     55 H15         0.4549   -1.9419    6.2124 H         1 <0>         0.0709
     56 H16         1.6603   -0.6322    6.2057 H         1 <0>         0.0718
     57 H17        -1.1114   -0.4284    7.4645 H         1 <0>         0.0737
     58 H18         1.3507    1.3712    7.5923 H         1 <0>         0.0464
     59 H19        -0.1446    1.7204    6.6921 H         1 <0>         0.0767
     60 H20        -0.1390    2.8706    8.8888 H         1 <0>         0.0534
     61 H21        -1.4346    1.6527    8.8087 H         1 <0>         0.0617
     62 H22         1.3078    1.2526   10.0876 H         1 <0>         0.0579
     63 H23        -0.2180    1.5173   10.9651 H         1 <0>         0.0558
     64 H24         0.3410   -0.8962   10.8600 H         1 <0>         0.0571
     65 H25        -1.1543   -0.5470    9.9598 H         1 <0>         0.0569
     66 H26         0.3354   -2.0464    8.6633 H         1 <0>         0.0560
     67 H27         1.6310   -0.8285    8.7435 H         1 <0>         0.0585
     68 H28        -1.7517   -1.4258    4.4267 H         1 <0>         0.3972
     69 H29        -4.3466    0.7052    3.8045 H         1 <0>         0.0811
     70 H30        -3.7122   -0.9343    3.5255 H         1 <0>         0.0862
     71 H31        -6.8443    0.7645    3.1428 H         1 <0>         0.1664
     72 H32        -8.0559   -3.0437    4.5864 H         1 <0>         0.2019
     73 H33        -4.3375    1.4365    6.5955 H         1 <0>         0.4029
     74 H34        -8.1235   -0.4182    8.1268 H         1 <0>         0.1612
     75 H35       -10.1708    0.0869    9.5460 H         1 <0>         0.1369
     76 H36       -11.4537    1.6636   10.9242 H         1 <0>         0.1333
     77 H37       -10.6267    3.9441   11.3119 H         1 <0>         0.1342
     78 H38        -8.5025    4.6879   10.3285 H         1 <0>         0.1403
     79 H39        -0.3554   -2.5020    3.6248 H         1 <0>         0.3668
     80 H40         2.0381    1.0422    1.3386 H         1 <0>         0.3702
     81 H41        -5.3099    2.5794    7.6182 H         1 <0>         0.4108
@<TRIPOS>BOND
     1    1    2 1
     2    1   46 1
     3    1   47 1
     4    1   48 1
     5    2    3 1
     6    2    4 1
     7    2   49 1
     8    3   50 1
     9    3   51 1
    10    3   52 1
    11    4    5 1
    12    4    6 1
    13    4   45 1
    14    6    7 1
    15    6   53 1
    16    6   54 1
    17    7    8 1
    18    7    9 1
    19    7   44 1
    20    9   10 1
    21    9   11 1
    22    9   18 1
    23   11   12 1
    24   11   55 1
    25   11   56 1
    26   12   17 1
    27   12   13 1
    28   12   57 1
    29   13   14 1
    30   13   58 1
    31   13   59 1
    32   14   15 1
    33   14   60 1
    34   14   61 1
    35   15   16 1
    36   15   62 1
    37   15   63 1
    38   16   17 1
    39   16   64 1
    40   16   65 1
    41   17   66 1
    42   17   67 1
    43   18   19 am
    44   18   68 1
    45   19   20 2
    46   19   21 1
    47   21   22 1
    48   21   23 1
    49   21   30 1
    50   23   24 1
    51   23   69 1
    52   23   70 1
    53   24   29 1
    54   24   25 2
    55   25   26 1
    56   25   71 1
    57   26   27 1
    58   26   28 1
    59   28   29 2
    60   28   72 1
    61   30   31 am
    62   30   73 1
    63   31   32 2
    64   31   33 1
    65   33   42 1
    66   33   34 2
    67   34   35 1
    68   34   74 1
    69   35   40 ar
    70   35   36 ar
    71   36   37 ar
    72   36   75 1
    73   37   38 ar
    74   37   76 1
    75   38   39 ar
    76   38   77 1
    77   39   40 ar
    78   39   78 1
    79   40   41 1
    80   41   42 am
    81   41   43 2
    82   42   81 1
    83   44   79 1
    84   45   80 1
@<TRIPOS>MOLECULE
CHEMBL56095__1
   82    85     0     0     0
SMALL
USER_CHARGES

@<TRIPOS>ATOM
      1 C1         -0.0187    1.5258    0.0104 C.3       1 <0>        -0.1576
      2 C2          0.0021   -0.0041    0.0020 C.3       1 <0>        -0.1260
      3 C3         -1.4333   -0.5336    0.0129 C.3       1 <0>        -0.1481
      4 C4          0.7182   -0.4975   -1.2568 C.3       1 <0>         0.1127
      5 H1          0.6556   -1.5845   -1.3079 H         1 <0>         0.1055
      6 C5          2.1873   -0.0730   -1.2073 C.3       1 <0>        -0.1829
      7 C6          2.9316   -0.6714   -2.4026 C.3       1 <0>         0.1020
      8 H2          2.4272   -0.3846   -3.3253 H         1 <0>         0.1245
      9 C7          4.3689   -0.1472   -2.4228 C.3       1 <0>         0.1127
     10 H3          4.3582    0.9394   -2.5084 H         1 <0>         0.1058
     11 C8          5.1132   -0.7456   -3.6182 C.3       1 <0>        -0.1245
     12 C9          6.5096   -0.1271   -3.7111 C.3       1 <0>        -0.0785
     13 C10         6.3863    1.3668   -4.0176 C.3       1 <0>        -0.1069
     14 C11         7.7826    1.9853   -4.1105 C.3       1 <0>        -0.1098
     15 C12         8.5712    1.2989   -5.2276 C.3       1 <0>        -0.1235
     16 C13         8.6944   -0.1951   -4.9211 C.3       1 <0>        -0.1160
     17 C14         7.2981   -0.8135   -4.8282 C.3       1 <0>        -0.1172
     18 N1          5.0468   -0.5327   -1.1827 N.am      1 <0>        -0.7126
     19 C15         6.0897    0.1921   -0.7314 C.2       1 <0>         0.5080
     20 O1          6.4668    1.1634   -1.3519 O.2       1 <0>        -0.4957
     21 C16         6.7870   -0.2045    0.5444 C.3       1 <0>         0.1279
     22 H4          7.1917   -1.2111    0.4394 H         1 <0>         0.1313
     23 C17         5.7875   -0.1748    1.7024 C.3       1 <0>        -0.0704
     24 C18         6.4527   -0.6885    2.9533 C.2       1 <0>         0.0347
     25 C19         6.5722   -1.9809    3.3125 C.2       1 <0>         0.0560
     26 N2          7.2383   -1.9997    4.5081 N.pl3     1 <0>        -0.5005
     27 H5          7.4760   -2.7872    5.0222 H         1 <0>         0.4672
     28 C20         7.5029   -0.7172    4.8382 C.cat     1 <0>         0.3121
     29 N3          7.0346    0.0611    3.9012 N.pl3     1 <0>        -0.4742
     30 N4          7.8780    0.7345    0.8167 N.am      1 <0>        -0.7108
     31 C21         8.9300    0.3467    1.5646 C.2       1 <0>         0.5655
     32 O2          8.9736   -0.7827    2.0132 O.2       1 <0>        -0.5208
     33 C22        10.0282    1.2918    1.8387 C.2       1 <0>         0.0562
     34 C23        11.0793    0.8778    2.5891 C.2       1 <0>        -0.0793
     35 C24        12.1741    1.8075    2.8665 C.ar      1 <0>        -0.0320
     36 C25        13.2800    1.4339    3.6324 C.ar      1 <0>        -0.1060
     37 C26        14.2853    2.3470    3.8646 C.ar      1 <0>        -0.0826
     38 C27        14.2091    3.6325    3.3457 C.ar      1 <0>        -0.1117
     39 C28        13.1260    4.0230    2.5870 C.ar      1 <0>        -0.0523
     40 C29        12.0978    3.1169    2.3381 C.ar      1 <0>        -0.1320
     41 C30        10.9220    3.4819    1.5351 C.2       1 <0>         0.5525
     42 N5          9.9570    2.5665    1.3198 N.am      1 <0>        -0.6348
     43 O3         10.8229    4.6005    1.0649 O.2       1 <0>        -0.5051
     44 O4          2.9457   -2.0959   -2.2904 O.3       1 <0>        -0.5421
     45 O5          0.0970    0.0703   -2.4117 O.3       1 <0>        -0.5536
     46 H6          1.0039    1.9031    0.0027 H         1 <0>         0.0540
     47 H7         -0.5459    1.8868   -0.8726 H         1 <0>         0.0606
     48 H8         -0.5289    1.8773    0.9072 H         1 <0>         0.0607
     49 H9          0.5293   -0.3651    0.8851 H         1 <0>         0.0721
     50 H10        -1.9605   -0.1726   -0.8702 H         1 <0>         0.0639
     51 H11        -1.4185   -1.6235    0.0069 H         1 <0>         0.0554
     52 H12        -1.9435   -0.1821    0.9097 H         1 <0>         0.0546
     53 H13         2.2529    1.0143   -1.2457 H         1 <0>         0.0803
     54 H14         2.6381   -0.4317   -0.2819 H         1 <0>         0.0703
     55 H15         5.2015   -1.8242   -3.4883 H         1 <0>         0.0724
     56 H16         4.5604   -0.5338   -4.5334 H         1 <0>         0.0773
     57 H17         7.0304   -0.2617   -2.7631 H         1 <0>         0.0679
     58 H18         5.8655    1.5015   -4.9656 H         1 <0>         0.0509
     59 H19         5.8245    1.8559   -3.2217 H         1 <0>         0.0744
     60 H20         7.6948    3.0496   -4.3288 H         1 <0>         0.0557
     61 H21         8.3035    1.8507   -3.1625 H         1 <0>         0.0577
     62 H22         8.0504    1.4335   -6.1756 H         1 <0>         0.0611
     63 H23         9.5660    1.7395   -5.2938 H         1 <0>         0.0579
     64 H24         9.2562   -0.6841   -5.7169 H         1 <0>         0.0600
     65 H25         9.2153   -0.3297   -3.9731 H         1 <0>         0.0539
     66 H26         7.3859   -1.8778   -4.6098 H         1 <0>         0.0563
     67 H27         6.7773   -0.6789   -5.7762 H         1 <0>         0.0621
     68 H28         4.7452   -1.3096   -0.6863 H         1 <0>         0.3950
     69 H29         5.4497    0.8487    1.8646 H         1 <0>         0.1079
     70 H30         4.9322   -0.8057    1.4604 H         1 <0>         0.1261
     71 H31         6.2114   -2.8378    2.7629 H         1 <0>         0.2236
     72 H32         8.0201   -0.3902    5.7281 H         1 <0>         0.2630
     73 H33         7.8432    1.6354    0.4588 H         1 <0>         0.4150
     74 H34        11.1076   -0.1291    2.9786 H         1 <0>         0.1609
     75 H35        13.3468    0.4362    4.0403 H         1 <0>         0.1382
     76 H36        15.1416    2.0599    4.4568 H         1 <0>         0.1380
     77 H37        15.0068    4.3345    3.5388 H         1 <0>         0.1397
     78 H38        13.0751    5.0253    2.1882 H         1 <0>         0.1443
     79 H39         3.3801   -2.4232   -1.4909 H         1 <0>         0.3617
     80 H40         0.1157    1.0369   -2.4332 H         1 <0>         0.3720
     81 H41         9.1860    2.8136    0.7856 H         1 <0>         0.4097
     82 H42         7.0959    1.0291    3.8927 H         1 <0>         0.4590
@<TRIPOS>BOND
     1    1    2 1
     2    1   46 1
     3    1   47 1
     4    1   48 1
     5    2    3 1
     6    2    4 1
     7    2   49 1
     8    3   50 1
     9    3   51 1
    10    3   52 1
    11    4    5 1
    12    4    6 1
    13    4   45 1
    14    6    7 1
    15    6   53 1
    16    6   54 1
    17    7    8 1
    18    7    9 1
    19    7   44 1
    20    9   10 1
    21    9   11 1
    22    9   18 1
    23   11   12 1
    24   11   55 1
    25   11   56 1
    26   12   17 1
    27   12   13 1
    28   12   57 1
    29   13   14 1
    30   13   58 1
    31   13   59 1
    32   14   15 1
    33   14   60 1
    34   14   61 1
    35   15   16 1
    36   15   62 1
    37   15   63 1
    38   16   17 1
    39   16   64 1
    40   16   65 1
    41   17   66 1
    42   17   67 1
    43   18   19 am
    44   18   68 1
    45   19   20 2
    46   19   21 1
    47   21   22 1
    48   21   23 1
    49   21   30 1
    50   23   24 1
    51   23   69 1
    52   23   70 1
    53   24   29 1
    54   24   25 2
    55   25   26 1
    56   25   71 1
    57   26   27 1
    58   26   28 1
    59   28   29 2
    60   28   72 1
    61   29   82 1
    62   30   31 am
    63   30   73 1
    64   31   32 2
    65   31   33 1
    66   33   42 1
    67   33   34 2
    68   34   35 1
    69   34   74 1
    70   35   40 ar
    71   35   36 ar
    72   36   37 ar
    73   36   75 1
    74   37   38 ar
    75   37   76 1
    76   38   39 ar
    77   38   77 1
    78   39   40 ar
    79   39   78 1
    80   40   41 1
    81   41   42 am
    82   41   43 2
    83   42   81 1
    84   44   79 1
    85   45   80 1
@<TRIPOS>MOLECULE
CHEMBL56095__2
   81    84     0     0     0
SMALL
USER_CHARGES

@<TRIPOS>ATOM
      1 C1         -0.0187    1.5258    0.0104 C.3       1 <0>        -0.1450
      2 C2          0.0021   -0.0041    0.0020 C.3       1 <0>        -0.1286
      3 C3          0.7421   -0.5109    1.2415 C.3       1 <0>        -0.1490
      4 C4         -1.4333   -0.5336    0.0129 C.3       1 <0>         0.1144
      5 H1         -1.9435   -0.1821    0.9097 H         1 <0>         0.1045
      6 C5         -1.4126   -2.0635    0.0045 C.3       1 <0>        -0.1868
      7 C6         -2.8413   -2.5937    0.1410 C.3       1 <0>         0.1038
      8 H2         -3.4650   -2.1632   -0.6424 H         1 <0>         0.1210
      9 C7         -2.8345   -4.1178    0.0076 C.3       1 <0>         0.1128
     10 H3         -2.4357   -4.3954   -0.9680 H         1 <0>         0.1035
     11 C8         -4.2632   -4.6480    0.1442 C.3       1 <0>        -0.1220
     12 C9         -4.2743   -6.1562   -0.1127 C.3       1 <0>        -0.0812
     13 C10        -3.8783   -6.4291   -1.5652 C.3       1 <0>        -0.1052
     14 C11        -3.8894   -7.9373   -1.8221 C.3       1 <0>        -0.1113
     15 C12        -5.2931   -8.4884   -1.5640 C.3       1 <0>        -0.1212
     16 C13        -5.6891   -8.2156   -0.1116 C.3       1 <0>        -0.1168
     17 C14        -5.6780   -6.7073    0.1454 C.3       1 <0>        -0.1153
     18 N1         -1.9962   -4.6965    1.0606 N.am      1 <0>        -0.7174
     19 C15        -1.4271   -5.9049    0.8810 C.2       1 <0>         0.5120
     20 O1         -1.6090   -6.5133   -0.1523 O.2       1 <0>        -0.5062
     21 C16        -0.5648   -6.5001    1.9641 C.3       1 <0>         0.1364
     22 H4         -1.1540   -6.6191    2.8734 H         1 <0>         0.1173
     23 C17         0.6191   -5.5715    2.2414 C.3       1 <0>        -0.0494
     24 C18         1.4130   -6.1039    3.4065 C.2       1 <0>        -0.0218
     25 C19         2.3856   -7.0340    3.3571 C.2       1 <0>        -0.0027
     26 N2          2.8387   -7.2271    4.6047 N.2       1 <0>        -0.4840
     27 H5          0.6698   -5.0729    5.0723 H         1 <0>         0.4152
     28 C20         2.1838   -6.4521    5.4253 C.2       1 <0>         0.1943
     29 N3          1.2881   -5.7307    4.7175 N.pl3     1 <0>        -0.5598
     30 N4         -0.0682   -7.8080    1.5294 N.am      1 <0>        -0.7105
     31 C21         0.2785   -8.7352    2.4441 C.2       1 <0>         0.5676
     32 O2          0.1790   -8.4861    3.6301 O.2       1 <0>        -0.4924
     33 C22         0.7783  -10.0517    2.0065 C.2       1 <0>         0.0777
     34 C23         1.1159  -10.9711    2.9446 C.2       1 <0>        -0.0916
     35 C24         1.6124  -12.2803    2.5211 C.ar      1 <0>        -0.0152
     36 C25         1.9737  -13.2636    3.4440 C.ar      1 <0>        -0.1089
     37 C26         2.4354  -14.4812    2.9937 C.ar      1 <0>        -0.0850
     38 C27         2.5451  -14.7388    1.6340 C.ar      1 <0>        -0.1241
     39 C28         2.1943  -13.7821    0.7050 C.ar      1 <0>        -0.0528
     40 C29         1.7240  -12.5441    1.1364 C.ar      1 <0>        -0.1378
     41 C30         1.3359  -11.4903    0.1880 C.2       1 <0>         0.5534
     42 N5          0.8825  -10.3114    0.6572 N.am      1 <0>        -0.6295
     43 O3          1.4194  -11.6825   -1.0113 O.2       1 <0>        -0.5199
     44 O4         -3.3642   -2.2297    1.4201 O.3       1 <0>        -0.5460
     45 O5         -2.1245   -0.0603   -1.1448 O.3       1 <0>        -0.5564
     46 H6          1.0039    1.9031    0.0027 H         1 <0>         0.0536
     47 H7         -0.5459    1.8868   -0.8726 H         1 <0>         0.0618
     48 H8         -0.5289    1.8773    0.9072 H         1 <0>         0.0547
     49 H9          0.5123   -0.3556   -0.8948 H         1 <0>         0.0705
     50 H10         0.2319   -0.1594    2.1383 H         1 <0>         0.0571
     51 H11         0.7568   -1.6008    1.2356 H         1 <0>         0.0553
     52 H12         1.7647   -0.1336    1.2338 H         1 <0>         0.0582
     53 H13        -0.9823   -2.4159   -0.9330 H         1 <0>         0.0778
     54 H14        -0.8102   -2.4233    0.8386 H         1 <0>         0.0785
     55 H15        -4.6303   -4.4482    1.1509 H         1 <0>         0.0702
     56 H16        -4.9062   -4.1510   -0.5823 H         1 <0>         0.0731
     57 H17        -3.5641   -6.6438    0.5551 H         1 <0>         0.0724
     58 H18        -4.5885   -5.9416   -2.2331 H         1 <0>         0.0473
     59 H19        -2.8783   -6.0365   -1.7491 H         1 <0>         0.0765
     60 H20        -3.6073   -8.1317   -2.8569 H         1 <0>         0.0545
     61 H21        -3.1792   -8.4249   -1.1542 H         1 <0>         0.0617
     62 H22        -6.0033   -8.0009   -2.2319 H         1 <0>         0.0583
     63 H23        -5.3010   -9.5629   -1.7471 H         1 <0>         0.0566
     64 H24        -6.6891   -8.6081    0.0723 H         1 <0>         0.0577
     65 H25        -4.9789   -8.7031    0.5563 H         1 <0>         0.0566
     66 H26        -5.9601   -6.5129    1.1801 H         1 <0>         0.0553
     67 H27        -6.3882   -6.2198   -0.5225 H         1 <0>         0.0593
     68 H28        -1.8508   -4.2099    1.8870 H         1 <0>         0.3943
     69 H29         1.2572   -5.5228    1.3590 H         1 <0>         0.0971
     70 H30         0.2504   -4.5736    2.4787 H         1 <0>         0.0834
     71 H31         2.7389   -7.5363    2.4687 H         1 <0>         0.1530
     72 H32         2.3355   -6.3946    6.4930 H         1 <0>         0.2041
     73 H33         0.0111   -8.0067    0.5833 H         1 <0>         0.4067
     74 H34         1.0195  -10.7386    3.9949 H         1 <0>         0.1628
     75 H35         1.8921  -13.0711    4.5036 H         1 <0>         0.1380
     76 H36         2.7154  -15.2431    3.7062 H         1 <0>         0.1335
     77 H37         2.9095  -15.6991    1.3001 H         1 <0>         0.1341
     78 H38         2.2837  -13.9915   -0.3507 H         1 <0>         0.1403
     79 H39        -2.8577   -2.5792    2.1660 H         1 <0>         0.3641
     80 H40        -1.7251   -0.3356   -1.9813 H         1 <0>         0.3722
     81 H41         0.6246   -9.6223    0.0251 H         1 <0>         0.4098
@<TRIPOS>BOND
     1    1    2 1
     2    1   46 1
     3    1   47 1
     4    1   48 1
     5    2    3 1
     6    2    4 1
     7    2   49 1
     8    3   50 1
     9    3   51 1
    10    3   52 1
    11    4    5 1
    12    4    6 1
    13    4   45 1
    14    6    7 1
    15    6   53 1
    16    6   54 1
    17    7    8 1
    18    7    9 1
    19    7   44 1
    20    9   10 1
    21    9   11 1
    22    9   18 1
    23   11   12 1
    24   11   55 1
    25   11   56 1
    26   12   17 1
    27   12   13 1
    28   12   57 1
    29   13   14 1
    30   13   58 1
    31   13   59 1
    32   14   15 1
    33   14   60 1
    34   14   61 1
    35   15   16 1
    36   15   62 1
    37   15   63 1
    38   16   17 1
    39   16   64 1
    40   16   65 1
    41   17   66 1
    42   17   67 1
    43   18   19 am
    44   18   68 1
    45   19   20 2
    46   19   21 1
    47   21   22 1
    48   21   23 1
    49   21   30 1
    50   23   69 1
    51   23   70 1
    52   23   24 1
    53   24   25 2
    54   24   29 1
    55   25   26 1
    56   25   71 1
    57   26   28 2
    58   27   29 1
    59   28   72 1
    60   28   29 1
    61   30   31 am
    62   30   73 1
    63   31   32 2
    64   31   33 1
    65   33   42 1
    66   33   34 2
    67   34   35 1
    68   34   74 1
    69   35   40 ar
    70   35   36 ar
    71   36   37 ar
    72   36   75 1
    73   37   38 ar
    74   37   76 1
    75   38   39 ar
    76   38   77 1
    77   39   40 ar
    78   39   78 1
    79   40   41 1
    80   41   42 am
    81   41   43 2
    82   42   81 1
    83   44   79 1
    84   45   80 1
@<TRIPOS>MOLECULE
CHEMBL60892
   88    90     0     0     0
SMALL
USER_CHARGES

@<TRIPOS>ATOM
      1 C1          3.6357    1.6197    0.2767 C.3       1 <0>        -0.1475
      2 C2          3.2503    0.1409    0.2044 C.3       1 <0>        -0.0949
      3 C3          3.6239   -0.5484    1.5182 C.3       1 <0>        -0.1506
      4 C4          1.7427    0.0174   -0.0256 C.3       1 <0>        -0.1433
      5 C5          1.3757   -1.4549   -0.2223 C.3       1 <0>         0.0748
      6 H1          1.7347   -2.0355    0.6275 H         1 <0>         0.1034
      7 C6         -0.1445   -1.5918   -0.3278 C.3       1 <0>         0.0691
      8 H2         -0.5035   -1.0112   -1.1776 H         1 <0>         0.1104
      9 C7         -0.5115   -3.0641   -0.5244 C.3       1 <0>         0.1179
     10 H3         -0.0490   -3.4348   -1.4392 H         1 <0>         0.1083
     11 C8         -2.0317   -3.2010   -0.6299 C.3       1 <0>        -0.1199
     12 C9         -2.3920   -4.6530   -0.9506 C.3       1 <0>        -0.0834
     13 C10        -1.8556   -5.0174   -2.3364 C.3       1 <0>        -0.1036
     14 C11        -2.2158   -6.4694   -2.6571 C.3       1 <0>        -0.1133
     15 C12        -3.7369   -6.6333   -2.6397 C.3       1 <0>        -0.1187
     16 C13        -4.2733   -6.2689   -1.2539 C.3       1 <0>        -0.1179
     17 C14        -3.9131   -4.8169   -0.9332 C.3       1 <0>        -0.1127
     18 N1         -0.0290   -3.8444    0.6177 N.am      1 <0>        -0.7249
     19 C15         0.2289   -5.1595    0.4746 C.2       1 <0>         0.5134
     20 O1          0.0616   -5.6969   -0.5997 O.2       1 <0>        -0.5124
     21 C16         0.7253   -5.9622    1.6495 C.3       1 <0>         0.1046
     22 N2          0.9287   -7.3538    1.2392 N.am      1 <0>        -0.7379
     23 C17         1.3727   -8.2613    2.1312 C.2       1 <0>         0.5379
     24 O2          1.6039   -7.9260    3.2736 O.2       1 <0>        -0.5141
     25 C18         1.5820   -9.6928    1.7091 C.3       1 <0>         0.1703
     26 H4          2.3180   -9.7309    0.9061 H         1 <0>         0.0391
     27 C19         0.2574  -10.2776    1.2150 C.3       1 <0>        -0.0998
     28 C20        -0.7454  -10.2710    2.3399 C.ar      1 <0>        -0.0368
     29 C21        -0.7592  -11.3030    3.2596 C.ar      1 <0>        -0.0741
     30 C22        -1.6790  -11.2969    4.2915 C.ar      1 <0>        -0.1311
     31 C23        -2.5848  -10.2587    4.4039 C.ar      1 <0>        -0.1372
     32 C24        -2.5704   -9.2264    3.4848 C.ar      1 <0>        -0.1336
     33 C25        -1.6478   -9.2302    2.4554 C.ar      1 <0>        -0.1220
     34 N3          2.0645  -10.4731    2.8513 N.2       1 <0>        -1.1296
     35 S1          2.9348  -11.8591    2.5987 S.o2      1 <0>         2.6814
     36 O3          1.9901  -12.9085    2.4391 O.2       1 <0>        -1.0559
     37 O4          3.9078  -11.5531    1.6093 O.2       1 <0>        -1.0872
     38 N4          3.7646  -12.1777    3.9959 N.pl3     1 <0>        -0.9909
     39 C26         5.1131  -11.6318    4.2173 C.3       1 <0>         0.1038
     40 C27         5.1397  -10.9513    5.5907 C.3       1 <0>         0.0501
     41 O5          4.6544  -11.8644    6.5779 O.3       1 <0>        -0.3889
     42 C28         3.2961  -12.2667    6.3857 C.3       1 <0>         0.0500
     43 C29         3.1728  -13.0100    5.0554 C.3       1 <0>         0.1020
     44 O6         -0.7509   -1.1058    0.8714 O.3       1 <0>        -0.5462
     45 O7          1.9821   -1.9409   -1.4215 O.3       1 <0>        -0.5462
     46 H5          4.7097    1.7077    0.4406 H         1 <0>         0.0541
     47 H6          3.3695    2.1108   -0.6593 H         1 <0>         0.0518
     48 H7          3.1024    2.0943    1.1004 H         1 <0>         0.0531
     49 H8          3.7835   -0.3337   -0.6193 H         1 <0>         0.0758
     50 H9          3.0906   -0.0738    2.3419 H         1 <0>         0.0534
     51 H10         3.3493   -1.6020    1.4667 H         1 <0>         0.0565
     52 H11         4.6979   -0.4605    1.6821 H         1 <0>         0.0546
     53 H12         1.2097    0.4123    0.8393 H         1 <0>         0.0794
     54 H13         1.4632    0.5834   -0.9142 H         1 <0>         0.0640
     55 H14        -2.4890   -2.9138    0.3169 H         1 <0>         0.0675
     56 H15        -2.4009   -2.5513   -1.4235 H         1 <0>         0.0659
     57 H16        -1.9471   -5.3111   -0.2042 H         1 <0>         0.0791
     58 H17        -2.3005   -4.3594   -3.0828 H         1 <0>         0.0416
     59 H18        -0.7719   -4.9007   -2.3488 H         1 <0>         0.0797
     60 H19        -1.8337   -6.7291   -3.6443 H         1 <0>         0.0525
     61 H20        -1.7709   -7.1275   -1.9107 H         1 <0>         0.0683
     62 H21        -4.1818   -5.9752   -3.3861 H         1 <0>         0.0538
     63 H22        -3.9935   -7.6677   -2.8681 H         1 <0>         0.0561
     64 H23        -5.3569   -6.3856   -1.2415 H         1 <0>         0.0546
     65 H24        -3.8284   -6.9270   -0.5075 H         1 <0>         0.0621
     66 H25        -4.2952   -4.5573    0.0541 H         1 <0>         0.0541
     67 H26        -4.3580   -4.1588   -1.6796 H         1 <0>         0.0545
     68 H27         0.1048   -3.4146    1.4769 H         1 <0>         0.3927
     69 H28         1.6690   -5.5455    2.0015 H         1 <0>         0.0875
     70 H29        -0.0108   -5.9241    2.4525 H         1 <0>         0.0885
     71 H30         0.7438   -7.6220    0.3255 H         1 <0>         0.4037
     72 H31        -0.1199   -9.6754    0.3884 H         1 <0>         0.0541
     73 H32         0.4162  -11.3013    0.8758 H         1 <0>         0.0691
     74 H33        -0.0515  -12.1141    3.1717 H         1 <0>         0.1374
     75 H34        -1.6902  -12.1035    5.0096 H         1 <0>         0.1094
     76 H35        -3.3039  -10.2544    5.2097 H         1 <0>         0.1061
     77 H36        -3.2783   -8.4154    3.5724 H         1 <0>         0.1051
     78 H37        -1.6341   -8.4218    1.7394 H         1 <0>         0.1067
     79 H38         5.8446  -12.4396    4.1936 H         1 <0>         0.0559
     80 H39         5.3457  -10.9023    3.4416 H         1 <0>         0.0900
     81 H40         6.1620  -10.6618    5.8338 H         1 <0>         0.0917
     82 H41         4.5047  -10.0656    5.5705 H         1 <0>         0.0626
     83 H42         2.9921  -12.9236    7.2007 H         1 <0>         0.0920
     84 H43         2.6544  -11.3858    6.3684 H         1 <0>         0.0620
     85 H44         2.1212  -13.1927    4.8344 H         1 <0>         0.0916
     86 H45         3.7056  -13.9588    5.1175 H         1 <0>         0.0549
     87 H46        -0.4767   -1.5774    1.6699 H         1 <0>         0.3720
     88 H47         1.7079   -1.4693   -2.2199 H         1 <0>         0.3726
@<TRIPOS>BOND
     1    1    2 1
     2    1   46 1
     3    1   47 1
     4    1   48 1
     5    2    3 1
     6    2    4 1
     7    2   49 1
     8    3   50 1
     9    3   51 1
    10    3   52 1
    11    4    5 1
    12    4   53 1
    13    4   54 1
    14    5    6 1
    15    5    7 1
    16    5   45 1
    17    7    8 1
    18    7    9 1
    19    7   44 1
    20    9   10 1
    21    9   11 1
    22    9   18 1
    23   11   12 1
    24   11   55 1
    25   11   56 1
    26   12   17 1
    27   12   13 1
    28   12   57 1
    29   13   14 1
    30   13   58 1
    31   13   59 1
    32   14   15 1
    33   14   60 1
    34   14   61 1
    35   15   16 1
    36   15   62 1
    37   15   63 1
    38   16   17 1
    39   16   64 1
    40   16   65 1
    41   17   66 1
    42   17   67 1
    43   18   19 am
    44   18   68 1
    45   19   20 2
    46   19   21 1
    47   21   22 1
    48   21   69 1
    49   21   70 1
    50   22   23 am
    51   22   71 1
    52   23   24 2
    53   23   25 1
    54   25   26 1
    55   25   27 1
    56   25   34 1
    57   27   28 1
    58   27   72 1
    59   27   73 1
    60   28   33 ar
    61   28   29 ar
    62   29   30 ar
    63   29   74 1
    64   30   31 ar
    65   30   75 1
    66   31   32 ar
    67   31   76 1
    68   32   33 ar
    69   32   77 1
    70   33   78 1
    71   34   35 1
    72   35   36 2
    73   35   37 2
    74   35   38 1
    75   38   43 1
    76   38   39 1
    77   39   40 1
    78   39   79 1
    79   39   80 1
    80   40   41 1
    81   40   81 1
    82   40   82 1
    83   41   42 1
    84   42   43 1
    85   42   83 1
    86   42   84 1
    87   43   85 1
    88   43   86 1
    89   44   87 1
    90   45   88 1
@<TRIPOS>MOLECULE
CHEMBL60892__1
   89    91     0     0     0
SMALL
USER_CHARGES

@<TRIPOS>ATOM
      1 C1         -0.0187    1.5258    0.0104 C.3       1 <0>        -0.1492
      2 C2          0.0021   -0.0041    0.0020 C.3       1 <0>        -0.0943
      3 C3          0.7421   -0.5109    1.2415 C.3       1 <0>        -0.1496
      4 C4         -1.4333   -0.5336    0.0129 C.3       1 <0>        -0.1450
      5 C5         -1.4157   -2.0577   -0.1212 C.3       1 <0>         0.0762
      6 H1         -0.7891   -2.4841    0.6622 H         1 <0>         0.1009
      7 C6         -2.8406   -2.5981    0.0146 C.3       1 <0>         0.0673
      8 H2         -3.4671   -2.1717   -0.7688 H         1 <0>         0.1139
      9 C7         -2.8229   -4.1221   -0.1195 C.3       1 <0>         0.1181
     10 H3         -2.4217   -4.3964   -1.0952 H         1 <0>         0.1107
     11 C8         -4.2478   -4.6626    0.0163 C.3       1 <0>        -0.1228
     12 C9         -4.2480   -6.1707   -0.2413 C.3       1 <0>        -0.0805
     13 C10        -3.8496   -6.4400   -1.6938 C.3       1 <0>        -0.1062
     14 C11        -3.8498   -7.9482   -1.9515 C.3       1 <0>        -0.1103
     15 C12        -5.2497   -8.5094   -1.6941 C.3       1 <0>        -0.1214
     16 C13        -5.6480   -8.2401   -0.2416 C.3       1 <0>        -0.1166
     17 C14        -5.6479   -6.7319    0.0160 C.3       1 <0>        -0.1158
     18 N1         -1.9808   -4.6953    0.9334 N.am      1 <0>        -0.7184
     19 C15        -1.4030   -5.8995    0.7534 C.2       1 <0>         0.5122
     20 O1         -1.5802   -6.5087   -0.2802 O.2       1 <0>        -0.5117
     21 C16        -0.5368   -6.4891    1.8365 C.3       1 <0>         0.0979
     22 N2         -0.0307   -7.7932    1.4014 N.am      1 <0>        -0.7127
     23 C17         0.7711   -8.5101    2.2136 C.2       1 <0>         0.5143
     24 O2          1.0737   -8.0755    3.3047 O.2       1 <0>        -0.5236
     25 C18         1.2917   -9.8516    1.7659 C.3       1 <0>         0.1513
     26 H4          1.8803   -9.7280    0.8569 H         1 <0>         0.1066
     27 C19         0.1145  -10.7885    1.4878 C.3       1 <0>        -0.0914
     28 C20         0.6290  -12.0878    0.9237 C.ar      1 <0>        -0.0858
     29 C21         0.7784  -12.2373   -0.4424 C.ar      1 <0>        -0.1083
     30 C22         1.2503  -13.4291   -0.9597 C.ar      1 <0>        -0.1171
     31 C23         1.5734  -14.4713   -0.1110 C.ar      1 <0>        -0.1062
     32 C24         1.4249  -14.3215    1.2552 C.ar      1 <0>        -0.0987
     33 C25         0.9570  -13.1282    1.7728 C.ar      1 <0>        -0.0684
     34 N3          2.1338  -10.4247    2.8188 N.pl3     1 <0>        -1.1067
     35 S1          3.4610  -11.3298    2.4168 S.o2      1 <0>         2.7649
     36 O3          4.0754  -11.7148    3.6389 O.2       1 <0>        -0.9723
     37 O4          3.0288  -12.2771    1.4498 O.2       1 <0>        -0.9319
     38 N4          4.5266  -10.3216    1.6484 N.pl3     1 <0>        -1.0085
     39 C26         4.4800  -10.1406    0.1888 C.3       1 <0>         0.0853
     40 C27         4.4594   -8.6375   -0.1116 C.3       1 <0>         0.0471
     41 O5          5.5446   -8.0060    0.5722 O.3       1 <0>        -0.3733
     42 C28         5.4752   -8.1042    1.9967 C.3       1 <0>         0.0473
     43 C29         5.5441   -9.5756    2.4057 C.3       1 <0>         0.0869
     44 O6         -3.3665   -2.2385    1.2937 O.3       1 <0>        -0.5429
     45 O7         -0.8897   -2.4172   -1.4003 O.3       1 <0>        -0.5488
     46 H5          1.0039    1.9031    0.0027 H         1 <0>         0.0552
     47 H6         -0.5459    1.8868   -0.8726 H         1 <0>         0.0535
     48 H7         -0.5289    1.8773    0.9072 H         1 <0>         0.0540
     49 H8          0.5123   -0.3556   -0.8948 H         1 <0>         0.0757
     50 H9          0.2319   -0.1594    2.1383 H         1 <0>         0.0539
     51 H10         0.7568   -1.6008    1.2356 H         1 <0>         0.0528
     52 H11         1.7647   -0.1336    1.2338 H         1 <0>         0.0553
     53 H12        -1.9156   -0.2570    0.9504 H         1 <0>         0.0802
     54 H13        -1.9862   -0.1019   -0.8214 H         1 <0>         0.0662
     55 H14        -4.6166   -4.4659    1.0230 H         1 <0>         0.0694
     56 H15        -4.8941   -4.1698   -0.7101 H         1 <0>         0.0707
     57 H16        -3.5345   -6.6535    0.4265 H         1 <0>         0.0738
     58 H17        -4.5631   -5.9573   -2.3617 H         1 <0>         0.0456
     59 H18        -2.8523   -6.0402   -1.8772 H         1 <0>         0.0788
     60 H19        -3.5660   -8.1400   -2.9863 H         1 <0>         0.0540
     61 H20        -3.1364   -8.4309   -1.2836 H         1 <0>         0.0629
     62 H21        -5.9631   -8.0266   -2.3620 H         1 <0>         0.0573
     63 H22        -5.2498   -9.5838   -1.8777 H         1 <0>         0.0569
     64 H23        -6.6453   -8.6399   -0.0583 H         1 <0>         0.0571
     65 H24        -4.9346   -8.7229    0.4262 H         1 <0>         0.0577
     66 H25        -5.9316   -6.5401    1.0508 H         1 <0>         0.0552
     67 H26        -6.3613   -6.2492   -0.6519 H         1 <0>         0.0582
     68 H27        -1.8392   -4.2080    1.7601 H         1 <0>         0.3948
     69 H28         0.3018   -5.8216    2.0347 H         1 <0>         0.0995
     70 H29        -1.1255   -6.6127    2.7456 H         1 <0>         0.1004
     71 H30        -0.2727   -8.1407    0.5287 H         1 <0>         0.4146
     72 H31        -0.4225  -10.9827    2.4162 H         1 <0>         0.0860
     73 H32        -0.5592  -10.3219    0.7691 H         1 <0>         0.0890
     74 H33         0.5260  -11.4231   -1.1055 H         1 <0>         0.1127
     75 H34         1.3663  -13.5462   -2.0271 H         1 <0>         0.1133
     76 H35         1.9414  -15.4027   -0.5152 H         1 <0>         0.1119
     77 H36         1.6770  -15.1358    1.9183 H         1 <0>         0.1113
     78 H37         0.8445  -13.0098    2.8404 H         1 <0>         0.1047
     79 H38         1.9139  -10.2740    3.7515 H         1 <0>         0.4240
     80 H39         5.3610  -10.5937   -0.2657 H         1 <0>         0.0843
     81 H40         3.5793  -10.6070   -0.2104 H         1 <0>         0.0994
     82 H41         4.5640   -8.4792   -1.1849 H         1 <0>         0.1079
     83 H42         3.5163   -8.2108    0.2300 H         1 <0>         0.0501
     84 H43         6.3106   -7.5622    2.4401 H         1 <0>         0.1078
     85 H44         4.5358   -7.6756    2.3459 H         1 <0>         0.0561
     86 H45         5.3479   -9.6682    3.4739 H         1 <0>         0.0969
     87 H46         6.5341   -9.9710    2.1782 H         1 <0>         0.0825
     88 H47        -2.8578   -2.5847    2.0396 H         1 <0>         0.3701
     89 H48        -1.3985   -2.0711   -2.1462 H         1 <0>         0.3757
@<TRIPOS>BOND
     1    1    2 1
     2    1   46 1
     3    1   47 1
     4    1   48 1
     5    2    3 1
     6    2    4 1
     7    2   49 1
     8    3   50 1
     9    3   51 1
    10    3   52 1
    11    4    5 1
    12    4   53 1
    13    4   54 1
    14    5    6 1
    15    5    7 1
    16    5   45 1
    17    7    8 1
    18    7    9 1
    19    7   44 1
    20    9   10 1
    21    9   11 1
    22    9   18 1
    23   11   12 1
    24   11   55 1
    25   11   56 1
    26   12   17 1
    27   12   13 1
    28   12   57 1
    29   13   14 1
    30   13   58 1
    31   13   59 1
    32   14   15 1
    33   14   60 1
    34   14   61 1
    35   15   16 1
    36   15   62 1
    37   15   63 1
    38   16   17 1
    39   16   64 1
    40   16   65 1
    41   17   66 1
    42   17   67 1
    43   18   19 am
    44   18   68 1
    45   19   20 2
    46   19   21 1
    47   21   22 1
    48   21   69 1
    49   21   70 1
    50   22   23 am
    51   22   71 1
    52   23   24 2
    53   23   25 1
    54   25   26 1
    55   25   27 1
    56   25   34 1
    57   27   28 1
    58   27   72 1
    59   27   73 1
    60   28   33 ar
    61   28   29 ar
    62   29   30 ar
    63   29   74 1
    64   30   31 ar
    65   30   75 1
    66   31   32 ar
    67   31   76 1
    68   32   33 ar
    69   32   77 1
    70   33   78 1
    71   34   35 1
    72   34   79 1
    73   35   36 2
    74   35   37 2
    75   35   38 1
    76   38   43 1
    77   38   39 1
    78   39   40 1
    79   39   80 1
    80   39   81 1
    81   40   41 1
    82   40   82 1
    83   40   83 1
    84   41   42 1
    85   42   43 1
    86   42   84 1
    87   42   85 1
    88   43   86 1
    89   43   87 1
    90   44   88 1
    91   45   89 1
@<TRIPOS>MOLECULE
CHEMBL432133
   81    82     0     0     0
SMALL
USER_CHARGES

@<TRIPOS>ATOM
      1 C1          1.1597    1.9262    2.0157 C.3       1 <0>        -0.1663
      2 C2          1.0045    0.4388    1.6924 C.3       1 <0>         0.1134
      3 N1          1.6616   -0.3580    2.7315 N.am      1 <0>        -0.7312
      4 C3          1.6531   -1.7035    2.6552 C.2       1 <0>         0.4859
      5 O1          1.1015   -2.2548    1.7263 O.2       1 <0>        -0.5113
      6 C4          2.3291   -2.5231    3.7240 C.3       1 <0>         0.0811
      7 H1          1.9307   -2.2466    4.7002 H         1 <0>         0.0862
      8 C5          3.8356   -2.2575    3.6940 C.3       1 <0>        -0.0706
      9 C6          4.4960   -2.9808    4.8393 C.ar      1 <0>        -0.0894
     10 C7          4.6383   -2.3535    6.0629 C.ar      1 <0>        -0.1206
     11 C8          5.2441   -3.0169    7.1135 C.ar      1 <0>        -0.1253
     12 C9          5.7073   -4.3078    6.9406 C.ar      1 <0>        -0.1199
     13 C10         5.5643   -4.9355    5.7173 C.ar      1 <0>        -0.1145
     14 C11         4.9546   -4.2736    4.6679 C.ar      1 <0>        -0.0797
     15 O2          2.0853   -3.9109    3.4857 O.3       1 <0>        -0.3130
     16 C12         0.9068   -4.4113    4.1204 C.3       1 <0>         0.0705
     17 H2          0.7221   -3.8512    5.0370 H         1 <0>         0.0783
     18 C13        -0.2871   -4.2531    3.1767 C.3       1 <0>        -0.1659
     19 C14         1.0953   -5.8693    4.4518 C.2       1 <0>         0.5061
     20 O3          2.1364   -6.4250    4.1721 O.2       1 <0>        -0.4772
     21 N2          0.1071   -6.5555    5.0591 N.am      1 <0>        -0.7167
     22 C15         0.2904   -7.9729    5.3813 C.3       1 <0>         0.1203
     23 H3          1.3299   -8.1515    5.6564 H         1 <0>         0.1076
     24 C16        -0.6192   -8.3515    6.5520 C.3       1 <0>        -0.1297
     25 C17        -0.1997   -7.5685    7.7977 C.3       1 <0>        -0.0814
     26 C18         1.2059   -7.9992    8.2215 C.3       1 <0>        -0.1158
     27 C19         1.6254   -7.2163    9.4672 C.3       1 <0>        -0.1178
     28 C20         0.6408   -7.4999   10.6034 C.3       1 <0>        -0.1206
     29 C21        -0.7648   -7.0692   10.1797 C.3       1 <0>        -0.1194
     30 C22        -1.1843   -7.8522    8.9339 C.3       1 <0>        -0.1146
     31 C23        -0.0678   -8.8237    4.1613 C.3       1 <0>         0.0608
     32 H4          0.0345   -9.8796    4.4119 H         1 <0>         0.0590
     33 C24         0.8742   -8.4803    3.0056 C.3       1 <0>         0.1180
     34 H5          0.8230   -7.4109    2.8006 H         1 <0>         0.1132
     35 C25         0.4553   -9.2595    1.7573 C.3       1 <0>        -0.1426
     36 C26         1.3499   -8.8594    0.5823 C.3       1 <0>        -0.0919
     37 C27         1.0308   -9.7428   -0.6254 C.3       1 <0>        -0.1473
     38 C28         1.0957   -7.3939    0.2237 C.3       1 <0>        -0.1450
     39 O4          2.2125   -8.8336    3.3609 O.3       1 <0>        -0.5245
     40 O5         -1.4164   -8.5550    3.7724 O.3       1 <0>        -0.5526
     41 H6          2.2188    2.1811    2.0537 H         1 <0>         0.0627
     42 H7          0.6708    2.5190    1.2426 H         1 <0>         0.0753
     43 H8          0.7002    2.1381    2.9811 H         1 <0>         0.0617
     44 H9         -0.0546    0.1839    1.6544 H         1 <0>         0.0673
     45 H10         1.4641    0.2269    0.7270 H         1 <0>         0.0686
     46 H11         2.1028    0.0829    3.4744 H         1 <0>         0.3997
     47 H12         4.2490   -2.6158    2.7513 H         1 <0>         0.0899
     48 H13         4.0176   -1.1869    3.7871 H         1 <0>         0.0895
     49 H14         4.2764   -1.3449    6.1980 H         1 <0>         0.1175
     50 H15         5.3559   -2.5265    8.0692 H         1 <0>         0.1187
     51 H16         6.1813   -4.8259    7.7611 H         1 <0>         0.1178
     52 H17         5.9265   -5.9439    5.5821 H         1 <0>         0.1201
     53 H18         4.8394   -4.7652    3.7133 H         1 <0>         0.1263
     54 H19        -0.1023   -4.8132    2.2600 H         1 <0>         0.0725
     55 H20        -1.1860   -4.6348    3.6608 H         1 <0>         0.0626
     56 H21        -0.4234   -3.1986    2.9369 H         1 <0>         0.0738
     57 H22        -0.7255   -6.1110    5.2829 H         1 <0>         0.3966
     58 H23        -1.6524   -8.1104    6.3021 H         1 <0>         0.0692
     59 H24        -0.5327   -9.4202    6.7483 H         1 <0>         0.0791
     60 H25        -0.2008   -6.5018    7.5738 H         1 <0>         0.0713
     61 H26         1.2070   -9.0660    8.4454 H         1 <0>         0.0607
     62 H27         1.9074   -7.7971    7.4120 H         1 <0>         0.0652
     63 H28         2.6268   -7.5231    9.7691 H         1 <0>         0.0606
     64 H29         1.6243   -6.1495    9.2434 H         1 <0>         0.0591
     65 H30         0.6419   -8.5667   10.8273 H         1 <0>         0.0607
     66 H31         0.9396   -6.9421   11.4909 H         1 <0>         0.0597
     67 H32        -1.4663   -7.2713   10.9891 H         1 <0>         0.0609
     68 H33        -0.7659   -6.0025    9.9558 H         1 <0>         0.0599
     69 H34        -2.1857   -7.5454    8.6320 H         1 <0>         0.0606
     70 H35        -1.1832   -8.9190    9.1578 H         1 <0>         0.0620
     71 H36         0.5580  -10.3283    1.9447 H         1 <0>         0.0568
     72 H37        -0.5831   -9.0308    1.5177 H         1 <0>         0.0764
     73 H38         2.3956   -8.9891    0.8612 H         1 <0>         0.0751
     74 H39         0.0112   -9.5487   -0.9584 H         1 <0>         0.0518
     75 H40         1.7261   -9.5177   -1.4341 H         1 <0>         0.0533
     76 H41         1.1277  -10.7915   -0.3443 H         1 <0>         0.0509
     77 H42         1.3230   -6.7646    1.0841 H         1 <0>         0.0584
     78 H43         1.7330   -7.1089   -0.6134 H         1 <0>         0.0513
     79 H44         0.0499   -7.2643   -0.0552 H         1 <0>         0.0489
     80 H45         2.3324   -9.7728    3.5573 H         1 <0>         0.3583
     81 H46        -2.0698   -8.7501    4.4581 H         1 <0>         0.3736
@<TRIPOS>BOND
     1    1    2 1
     2    1   41 1
     3    1   42 1
     4    1   43 1
     5    2    3 1
     6    2   44 1
     7    2   45 1
     8    3    4 am
     9    3   46 1
    10    4    5 2
    11    4    6 1
    12    6    7 1
    13    6    8 1
    14    6   15 1
    15    8    9 1
    16    8   47 1
    17    8   48 1
    18    9   14 ar
    19    9   10 ar
    20   10   11 ar
    21   10   49 1
    22   11   12 ar
    23   11   50 1
    24   12   13 ar
    25   12   51 1
    26   13   14 ar
    27   13   52 1
    28   14   53 1
    29   15   16 1
    30   16   17 1
    31   16   18 1
    32   16   19 1
    33   18   54 1
    34   18   55 1
    35   18   56 1
    36   19   20 2
    37   19   21 am
    38   21   22 1
    39   21   57 1
    40   22   23 1
    41   22   24 1
    42   22   31 1
    43   24   25 1
    44   24   58 1
    45   24   59 1
    46   25   30 1
    47   25   26 1
    48   25   60 1
    49   26   27 1
    50   26   61 1
    51   26   62 1
    52   27   28 1
    53   27   63 1
    54   27   64 1
    55   28   29 1
    56   28   65 1
    57   28   66 1
    58   29   30 1
    59   29   67 1
    60   29   68 1
    61   30   69 1
    62   30   70 1
    63   31   32 1
    64   31   33 1
    65   31   40 1
    66   33   34 1
    67   33   35 1
    68   33   39 1
    69   35   36 1
    70   35   71 1
    71   35   72 1
    72   36   37 1
    73   36   38 1
    74   36   73 1
    75   37   74 1
    76   37   75 1
    77   37   76 1
    78   38   77 1
    79   38   78 1
    80   38   79 1
    81   39   80 1
    82   40   81 1
@<TRIPOS>MOLECULE
CHEMBL350425
   84    86     0     0     0
SMALL
USER_CHARGES

@<TRIPOS>ATOM
      1 C1         -0.3367    1.1589   -3.5128 C.3       1 <0>        -0.1445
      2 C2         -0.2660   -0.3583   -3.6973 C.3       1 <0>        -0.1186
      3 C3          1.0031   -0.7193   -4.4718 C.3       1 <0>        -0.1510
      4 C4         -0.2379   -1.0380   -2.3269 C.3       1 <0>        -0.1336
      5 C5         -0.2441   -2.5569   -2.5107 C.3       1 <0>         0.1158
      6 C6         -1.6180   -3.0041   -3.0138 C.3       1 <0>         0.1101
      7 C7         -1.8164   -2.5223   -4.4279 C.2       1 <0>         0.4402
      8 O1         -2.7507   -1.8048   -4.6962 O.2       1 <0>        -0.4852
      9 O2         -0.9550   -2.8903   -5.3894 O.3       1 <0>        -0.3478
     10 C8         -1.2040   -2.3966   -6.7071 C.3       1 <0>         0.0300
     11 O3         -2.6352   -2.4522   -2.1755 O.3       1 <0>        -0.5255
     12 N1          0.0410   -3.2052   -1.2282 N.am      1 <0>        -0.7131
     13 C9          1.3146   -3.3323   -0.8059 C.2       1 <0>         0.5118
     14 O4          2.2174   -2.8316   -1.4423 O.2       1 <0>        -0.5087
     15 C10         1.6168   -4.0967    0.4573 C.3       1 <0>         0.1295
     16 C11         0.9004   -3.4362    1.6368 C.3       1 <0>        -0.0712
     17 C12         1.1016   -4.2687    2.8768 C.2       1 <0>         0.0425
     18 C13         0.3633   -5.3336    3.2435 C.2       1 <0>         0.0565
     19 N2          0.8846   -5.7893    4.4242 N.pl3     1 <0>        -0.4987
     20 H1          0.5668   -6.5474    4.9392 H         1 <0>         0.4664
     21 C14         1.9242   -4.9866    4.7381 C.cat     1 <0>         0.3068
     22 N3          2.0511   -4.0825    3.8056 N.pl3     1 <0>        -0.4740
     23 N4          3.0618   -4.0904    0.6980 N.am      1 <0>        -0.7177
     24 C15         3.6281   -5.0735    1.4255 C.2       1 <0>         0.5223
     25 O5          2.9414   -5.9635    1.8808 O.2       1 <0>        -0.5228
     26 C16         5.1146   -5.0671    1.6731 C.3       1 <0>        -0.0955
     27 C17         5.4960   -6.2835    2.5191 C.3       1 <0>        -0.0553
     28 C18         5.2201   -7.5436    1.7401 C.ar      1 <0>        -0.0803
     29 C19         4.1248   -8.2993    2.0268 C.ar      1 <0>        -0.0790
     30 C20         3.8533   -9.4674    1.3174 C.ar      1 <0>        -0.1265
     31 C21         4.6759   -9.8871    0.3173 C.ar      1 <0>        -0.1010
     32 C22         5.8163   -9.1333   -0.0073 C.ar      1 <0>        -0.0556
     33 C23         6.0890   -7.9417    0.7102 C.ar      1 <0>        -0.0455
     34 C24         7.2266   -7.1846    0.3814 C.ar      1 <0>        -0.1218
     35 C25         8.0457   -7.6012   -0.6224 C.ar      1 <0>        -0.1124
     36 C26         7.7739   -8.7696   -1.3322 C.ar      1 <0>        -0.1144
     37 C27         6.6892   -9.5351   -1.0330 C.ar      1 <0>        -0.1095
     38 C28         5.5023   -3.7871    2.4163 C.3       1 <0>        -0.1367
     39 C29         7.0034   -3.6993    2.5162 C.2       1 <0>         0.5125
     40 O6          7.6979   -4.5092    1.9395 O.2       1 <0>        -0.5209
     41 N5          7.5740   -2.7207    3.2464 N.am      1 <0>        -0.6182
     42 C30         9.0261   -2.7030    3.4399 C.3       1 <0>         0.0801
     43 C31         6.7423   -1.6747    3.8466 C.3       1 <0>         0.0722
     44 H2         -0.3568    1.6431   -4.4891 H         1 <0>         0.0597
     45 H3         -1.2409    1.4160   -2.9610 H         1 <0>         0.0558
     46 H4          0.5371    1.4984   -2.9567 H         1 <0>         0.0567
     47 H5         -1.1399   -0.6978   -4.2534 H         1 <0>         0.0768
     48 H6          1.0844   -1.8033   -4.5511 H         1 <0>         0.0624
     49 H7          0.9556   -0.2844   -5.4702 H         1 <0>         0.0563
     50 H8          1.8736   -0.3272   -3.9458 H         1 <0>         0.0591
     51 H9          0.6641   -0.7404   -1.7922 H         1 <0>         0.0854
     52 H10        -1.1154   -0.7377   -1.7543 H         1 <0>         0.0709
     53 H11         0.5182   -2.8381   -3.2373 H         1 <0>         0.1202
     54 H12        -1.6776   -4.0922   -2.9890 H         1 <0>         0.1479
     55 H13        -2.1826   -2.7382   -7.0442 H         1 <0>         0.0656
     56 H14        -1.1832   -1.3068   -6.6967 H         1 <0>         0.0650
     57 H15        -0.4359   -2.7682   -7.3854 H         1 <0>         0.1084
     58 H16        -2.6416   -1.4856   -2.1493 H         1 <0>         0.3894
     59 H17        -0.6867   -3.5429   -0.6831 H         1 <0>         0.4072
     60 H18         1.2705   -5.1248    0.3514 H         1 <0>         0.1300
     61 H19         1.3097   -2.4390    1.7983 H         1 <0>         0.1061
     62 H20        -0.1649   -3.3607    1.4188 H         1 <0>         0.1259
     63 H21        -0.4787   -5.7481    2.7089 H         1 <0>         0.2227
     64 H22         2.5494   -5.0798    5.6138 H         1 <0>         0.2609
     65 H23         3.6111   -3.3787    0.3338 H         1 <0>         0.4159
     66 H24         5.6419   -5.1076    0.7200 H         1 <0>         0.1215
     67 H25         6.5561   -6.2350    2.7680 H         1 <0>         0.0956
     68 H26         4.9072   -6.2871    3.4364 H         1 <0>         0.0686
     69 H27         3.4563   -7.9889    2.8162 H         1 <0>         0.1170
     70 H28         2.9774  -10.0487    1.5650 H         1 <0>         0.1174
     71 H29         4.4533  -10.7951   -0.2236 H         1 <0>         0.1244
     72 H30         7.4495   -6.2768    0.9223 H         1 <0>         0.1518
     73 H31         8.9192   -7.0176   -0.8730 H         1 <0>         0.1222
     74 H32         8.4400   -9.0776   -2.1246 H         1 <0>         0.1233
     75 H33         6.4917  -10.4384   -1.5911 H         1 <0>         0.1262
     76 H34         5.1231   -2.9221    1.8723 H         1 <0>         0.1019
     77 H35         5.0719   -3.8039    3.4176 H         1 <0>         0.0886
     78 H36         9.4850   -2.0601    2.6888 H         1 <0>         0.0609
     79 H37         9.2555   -2.3206    4.4345 H         1 <0>         0.0729
     80 H38         9.4182   -3.7152    3.3404 H         1 <0>         0.0831
     81 H39         5.6967   -1.8532    3.5957 H         1 <0>         0.0708
     82 H40         6.8638   -1.6907    4.9297 H         1 <0>         0.0679
     83 H41         7.0475   -0.7019    3.4611 H         1 <0>         0.0704
     84 H42         2.7247   -3.3847    3.7880 H         1 <0>         0.4554
@<TRIPOS>BOND
     1    1    2 1
     2    1   44 1
     3    1   45 1
     4    1   46 1
     5    2    3 1
     6    2    4 1
     7    2   47 1
     8    3   48 1
     9    3   49 1
    10    3   50 1
    11    4    5 1
    12    4   51 1
    13    4   52 1
    14    5    6 1
    15    5   12 1
    16    5   53 1
    17    6    7 1
    18    6   11 1
    19    6   54 1
    20    7    8 2
    21    7    9 1
    22    9   10 1
    23   10   55 1
    24   10   56 1
    25   10   57 1
    26   11   58 1
    27   12   13 am
    28   12   59 1
    29   13   14 2
    30   13   15 1
    31   15   16 1
    32   15   23 1
    33   15   60 1
    34   16   17 1
    35   16   61 1
    36   16   62 1
    37   17   22 1
    38   17   18 2
    39   18   19 1
    40   18   63 1
    41   19   20 1
    42   19   21 1
    43   21   22 2
    44   21   64 1
    45   22   84 1
    46   23   24 am
    47   23   65 1
    48   24   25 2
    49   24   26 1
    50   26   27 1
    51   26   38 1
    52   26   66 1
    53   27   28 1
    54   27   67 1
    55   27   68 1
    56   28   33 ar
    57   28   29 ar
    58   29   30 ar
    59   29   69 1
    60   30   31 ar
    61   30   70 1
    62   31   32 ar
    63   31   71 1
    64   32   37 ar
    65   32   33 ar
    66   33   34 ar
    67   34   35 ar
    68   34   72 1
    69   35   36 ar
    70   35   73 1
    71   36   37 ar
    72   36   74 1
    73   37   75 1
    74   38   39 1
    75   38   76 1
    76   38   77 1
    77   39   40 2
    78   39   41 am
    79   41   42 1
    80   41   43 1
    81   42   78 1
    82   42   79 1
    83   42   80 1
    84   43   81 1
    85   43   82 1
    86   43   83 1
@<TRIPOS>MOLECULE
CHEMBL350425__1
   83    85     0     0     0
SMALL
USER_CHARGES

@<TRIPOS>ATOM
      1 C1         -0.2533    1.3081   -3.4964 C.3       1 <0>        -0.1431
      2 C2         -0.2034   -0.2082   -3.6944 C.3       1 <0>        -0.1178
      3 C3          1.0619   -0.5799   -4.4702 C.3       1 <0>        -0.1500
      4 C4         -0.1870   -0.9005   -2.3301 C.3       1 <0>        -0.1349
      5 C5         -0.2127   -2.4175   -2.5275 C.3       1 <0>         0.1184
      6 C6         -1.5912   -2.8420   -3.0378 C.3       1 <0>         0.1090
      7 C7         -1.7797   -2.3453   -4.4481 C.2       1 <0>         0.4438
      8 O1         -2.7038   -1.6131   -4.7122 O.2       1 <0>        -0.4909
      9 O2         -0.9209   -2.7163   -5.4107 O.3       1 <0>        -0.3466
     10 C8         -1.1601   -2.2079   -6.7246 C.3       1 <0>         0.0307
     11 O3         -2.6030   -2.2840   -2.1970 O.3       1 <0>        -0.5234
     12 N1          0.0608   -3.0809   -1.2503 N.am      1 <0>        -0.7176
     13 C9          1.3316   -3.2290   -0.8264 C.2       1 <0>         0.5152
     14 O4          2.2425   -2.7349   -1.4565 O.2       1 <0>        -0.5267
     15 C10         1.6206   -4.0085    0.4305 C.3       1 <0>         0.1410
     16 C11         0.9106   -3.3488    1.6144 C.3       1 <0>        -0.0393
     17 C12         1.0978   -4.1948    2.8474 C.2       1 <0>         0.0136
     18 C13         1.6013   -3.7774    4.0246 C.2       1 <0>        -0.0611
     19 N2          1.5940   -4.8586    4.8641 N.pl3     1 <0>        -0.5719
     20 H1          1.8972   -4.8740    5.7853 H         1 <0>         0.4157
     21 C14         1.0860   -5.8997    4.1701 C.2       1 <0>         0.1946
     22 N3          0.7868   -5.4941    2.9664 N.2       1 <0>        -0.4483
     23 N4          3.0651   -4.0238    0.6743 N.am      1 <0>        -0.7167
     24 C15         3.6164   -5.0209    1.3942 C.2       1 <0>         0.5153
     25 O5          2.9167   -5.9055    1.8403 O.2       1 <0>        -0.4868
     26 C16         5.1023   -5.0367    1.6450 C.3       1 <0>        -0.0871
     27 C17         5.4654   -6.2656    2.4811 C.3       1 <0>        -0.0561
     28 C18         5.1734   -7.5150    1.6907 C.ar      1 <0>        -0.0733
     29 C19         4.0680   -8.2587    1.9701 C.ar      1 <0>        -0.0733
     30 C20         3.7816   -9.4167    1.2502 C.ar      1 <0>        -0.1158
     31 C21         4.5991   -9.8384    0.2468 C.ar      1 <0>        -0.1136
     32 C22         5.7495   -9.0968   -0.0706 C.ar      1 <0>        -0.0563
     33 C23         6.0375   -7.9153    0.6577 C.ar      1 <0>        -0.0457
     34 C24         7.1852   -7.1704    0.3362 C.ar      1 <0>        -0.1138
     35 C25         7.9993   -7.5888   -0.6709 C.ar      1 <0>        -0.1227
     36 C26         7.7126   -8.7471   -1.3913 C.ar      1 <0>        -0.1197
     37 C27         6.6176   -9.5009   -1.0994 C.ar      1 <0>        -0.1120
     38 C28         5.5056   -3.7688    2.4004 C.3       1 <0>        -0.1302
     39 C29         7.0076   -3.7017    2.5035 C.2       1 <0>         0.5156
     40 O6          7.6923   -4.5154    1.9205 O.2       1 <0>        -0.5292
     41 N5          7.5898   -2.7374    3.2435 N.am      1 <0>        -0.6220
     42 C30         9.0420   -2.7389    3.4368 C.3       1 <0>         0.0824
     43 C31         6.7706   -1.6878    3.8545 C.3       1 <0>         0.0774
     44 H2         -0.2651    1.8012   -4.4684 H         1 <0>         0.0564
     45 H3         -1.1548    1.5728   -2.9438 H         1 <0>         0.0549
     46 H4          0.6243    1.6304   -2.9360 H         1 <0>         0.0568
     47 H5         -1.0810   -0.5306   -4.2548 H         1 <0>         0.0750
     48 H6          1.9369   -0.2049   -3.9393 H         1 <0>         0.0594
     49 H7          1.1281   -1.6642   -4.5593 H         1 <0>         0.0636
     50 H8          1.0221   -0.1353   -5.4646 H         1 <0>         0.0526
     51 H9          0.7178   -0.6195   -1.7910 H         1 <0>         0.0868
     52 H10        -1.0617   -0.5938   -1.7565 H         1 <0>         0.0698
     53 H11         0.5475   -2.7021   -3.2549 H         1 <0>         0.1160
     54 H12        -1.6652   -3.9294   -3.0226 H         1 <0>         0.1482
     55 H13        -0.3954   -2.5837   -7.4044 H         1 <0>         0.1061
     56 H14        -2.1423   -2.5335   -7.0670 H         1 <0>         0.0633
     57 H15        -1.1249   -1.1186   -6.7046 H         1 <0>         0.0633
     58 H16        -2.5968   -1.3176   -2.1624 H         1 <0>         0.3871
     59 H17        -0.6727   -3.4135   -0.7097 H         1 <0>         0.4095
     60 H18         1.2608   -5.0308    0.3148 H         1 <0>         0.1252
     61 H19         1.3330   -2.3587    1.7856 H         1 <0>         0.0791
     62 H20        -0.1531   -3.2570    1.3948 H         1 <0>         0.0849
     63 H21         1.9451   -2.7812    4.2608 H         1 <0>         0.1648
     64 H22         0.9466   -6.9011    4.5498 H         1 <0>         0.1984
     65 H23         3.6247   -3.3164    0.3176 H         1 <0>         0.4033
     66 H24         5.6311   -5.0760    0.6927 H         1 <0>         0.1074
     67 H25         6.5257   -6.2340    2.7320 H         1 <0>         0.0867
     68 H26         4.8751   -6.2690    3.3973 H         1 <0>         0.0724
     69 H27         3.4032   -7.9465    2.7619 H         1 <0>         0.1272
     70 H28         2.8979   -9.9886    1.4922 H         1 <0>         0.1180
     71 H29         4.3649  -10.7384   -0.3023 H         1 <0>         0.1206
     72 H30         7.4197   -6.2705    0.8853 H         1 <0>         0.1524
     73 H31         8.8805   -7.0146   -0.9159 H         1 <0>         0.1179
     74 H32         8.3750   -9.0568   -2.1861 H         1 <0>         0.1181
     75 H33         6.4085  -10.3965   -1.6656 H         1 <0>         0.1220
     76 H34         5.1388   -2.8939    1.8635 H         1 <0>         0.0987
     77 H35         5.0733   -3.7888    3.4008 H         1 <0>         0.0972
     78 H36         9.5083   -2.0935    2.6924 H         1 <0>         0.0561
     79 H37         9.2760   -2.3698    4.4354 H         1 <0>         0.0686
     80 H38         9.4222   -3.7545    3.3265 H         1 <0>         0.0800
     81 H39         6.0476   -2.1402    4.5333 H         1 <0>         0.0618
     82 H40         7.4119   -1.0036    4.4101 H         1 <0>         0.0800
     83 H41         6.2428   -1.1387    3.0748 H         1 <0>         0.0636
@<TRIPOS>BOND
     1    1    2 1
     2    1   44 1
     3    1   45 1
     4    1   46 1
     5    2    3 1
     6    2    4 1
     7    2   47 1
     8    3   48 1
     9    3   49 1
    10    3   50 1
    11    4    5 1
    12    4   51 1
    13    4   52 1
    14    5    6 1
    15    5   12 1
    16    5   53 1
    17    6    7 1
    18    6   11 1
    19    6   54 1
    20    7    8 2
    21    7    9 1
    22    9   10 1
    23   10   55 1
    24   10   56 1
    25   10   57 1
    26   11   58 1
    27   12   13 am
    28   12   59 1
    29   13   14 2
    30   13   15 1
    31   15   16 1
    32   15   23 1
    33   15   60 1
    34   16   17 1
    35   16   61 1
    36   16   62 1
    37   17   22 1
    38   17   18 2
    39   18   19 1
    40   18   63 1
    41   19   20 1
    42   19   21 1
    43   21   22 2
    44   21   64 1
    45   23   24 am
    46   23   65 1
    47   24   25 2
    48   24   26 1
    49   26   27 1
    50   26   38 1
    51   26   66 1
    52   27   28 1
    53   27   67 1
    54   27   68 1
    55   28   33 ar
    56   28   29 ar
    57   29   30 ar
    58   29   69 1
    59   30   31 ar
    60   30   70 1
    61   31   32 ar
    62   31   71 1
    63   32   37 ar
    64   32   33 ar
    65   33   34 ar
    66   34   35 ar
    67   34   72 1
    68   35   36 ar
    69   35   73 1
    70   36   37 ar
    71   36   74 1
    72   37   75 1
    73   38   39 1
    74   38   76 1
    75   38   77 1
    76   39   40 2
    77   39   41 am
    78   41   42 1
    79   41   43 1
    80   42   78 1
    81   42   79 1
    82   42   80 1
    83   43   81 1
    84   43   82 1
    85   43   83 1
@<TRIPOS>MOLECULE
CHEMBL350425__2
   83    85     0     0     0
SMALL
USER_CHARGES

@<TRIPOS>ATOM
      1 C1         -0.3402    1.1478   -3.5256 C.3       1 <0>        -0.1435
      2 C2         -0.2674   -0.3696   -3.7076 C.3       1 <0>        -0.1177
      3 C3          1.0025   -0.7301   -4.4812 C.3       1 <0>        -0.1503
      4 C4         -0.2387   -1.0471   -2.3361 C.3       1 <0>        -0.1351
      5 C5         -0.2423   -2.5663   -2.5175 C.3       1 <0>         0.1179
      6 C6         -1.6153   -3.0166   -3.0205 C.3       1 <0>         0.1093
      7 C7         -1.8139   -2.5373   -4.4354 C.2       1 <0>         0.4433
      8 O1         -2.7492   -1.8216   -4.7051 O.2       1 <0>        -0.4897
      9 O2         -0.9517   -2.9055   -5.3960 O.3       1 <0>        -0.3467
     10 C8         -1.2009   -2.4142   -6.7145 C.3       1 <0>         0.0306
     11 O3         -2.6337   -2.4651   -2.1834 O.3       1 <0>        -0.5248
     12 N1          0.0434   -3.2120   -1.2339 N.am      1 <0>        -0.7181
     13 C9          1.3169   -3.3364   -0.8107 C.2       1 <0>         0.5150
     14 O4          2.2192   -2.8352   -1.4476 O.2       1 <0>        -0.5189
     15 C10         1.6198   -4.0982    0.4537 C.3       1 <0>         0.1382
     16 C11         0.9018   -3.4370    1.6319 C.3       1 <0>        -0.0511
     17 C12         1.1039   -4.2672    2.8733 C.2       1 <0>        -0.0141
     18 C13         2.1541   -4.2110    3.7144 C.2       1 <0>        -0.0045
     19 N2          1.9519   -5.1077    4.6912 N.2       1 <0>        -0.4843
     20 H1         -0.5960   -5.4875    2.9800 H         1 <0>         0.4149
     21 C14         0.8163   -5.7175    4.4872 C.2       1 <0>         0.1919
     22 N3          0.2525   -5.2191    3.3659 N.pl3     1 <0>        -0.5591
     23 N4          3.0648   -4.0891    0.6950 N.am      1 <0>        -0.7182
     24 C15         3.6324   -5.0702    1.4243 C.2       1 <0>         0.5248
     25 O5          2.9469   -5.9605    1.8808 O.2       1 <0>        -0.4995
     26 C16         5.1188   -5.0608    1.6726 C.3       1 <0>        -0.0840
     27 C17         5.5018   -6.2753    2.5207 C.3       1 <0>        -0.0607
     28 C18         5.2284   -7.5371    1.7436 C.ar      1 <0>        -0.0695
     29 C19         4.1339   -8.2938    2.0306 C.ar      1 <0>        -0.0773
     30 C20         3.8647   -9.4635    1.3229 C.ar      1 <0>        -0.1180
     31 C21         4.6888   -9.8838    0.3243 C.ar      1 <0>        -0.1145
     32 C22         5.8284   -9.1289   -0.0006 C.ar      1 <0>        -0.0565
     33 C23         6.0988   -7.9357    0.7152 C.ar      1 <0>        -0.0463
     34 C24         7.2357   -7.1776    0.3861 C.ar      1 <0>        -0.1127
     35 C25         8.0562   -7.5947   -0.6162 C.ar      1 <0>        -0.1228
     36 C26         7.7868   -8.7646   -1.3243 C.ar      1 <0>        -0.1191
     37 C27         6.7028   -9.5312   -1.0248 C.ar      1 <0>        -0.1130
     38 C28         5.5040   -3.7791    2.4139 C.3       1 <0>        -0.1367
     39 C29         7.0049   -3.6878    2.5129 C.2       1 <0>         0.5174
     40 O6          7.7010   -4.4962    1.9360 O.2       1 <0>        -0.5307
     41 N5          7.5738   -2.7077    3.2425 N.am      1 <0>        -0.6209
     42 C30         9.0260   -2.6865    3.4348 C.3       1 <0>         0.0830
     43 C31         6.7400   -1.6636    3.8433 C.3       1 <0>         0.0744
     44 H2         -0.3606    1.6304   -4.5027 H         1 <0>         0.0571
     45 H3         -1.2449    1.4046   -2.9745 H         1 <0>         0.0550
     46 H4          0.5331    1.4893   -2.9698 H         1 <0>         0.0573
     47 H5         -1.1406   -0.7112   -4.2634 H         1 <0>         0.0749
     48 H6          1.8723   -0.3360   -3.9556 H         1 <0>         0.0600
     49 H7          1.0853   -1.8142   -4.5587 H         1 <0>         0.0631
     50 H8          0.9546   -0.2970   -5.4803 H         1 <0>         0.0534
     51 H9          0.6626   -0.7471   -1.8015 H         1 <0>         0.0875
     52 H10        -1.1170   -0.7473   -1.7644 H         1 <0>         0.0698
     53 H11         0.5207   -2.8473   -3.2433 H         1 <0>         0.1173
     54 H12        -1.6730   -4.1047   -2.9940 H         1 <0>         0.1473
     55 H13        -0.4320   -2.7857   -7.3920 H         1 <0>         0.1067
     56 H14        -2.1789   -2.7578   -7.0515 H         1 <0>         0.0636
     57 H15        -1.1818   -1.3244   -6.7058 H         1 <0>         0.0639
     58 H16        -2.6418   -1.4984   -2.1587 H         1 <0>         0.3882
     59 H17        -0.6841   -3.5500   -0.6885 H         1 <0>         0.4067
     60 H18         1.2754   -5.1271    0.3494 H         1 <0>         0.1153
     61 H19         1.3095   -2.4389    1.7920 H         1 <0>         0.0951
     62 H20        -0.1635   -3.3637    1.4133 H         1 <0>         0.0824
     63 H21         3.0093   -3.5583    3.6192 H         1 <0>         0.1524
     64 H22         0.3954   -6.4903    5.1134 H         1 <0>         0.2012
     65 H23         3.6130   -3.3771    0.3299 H         1 <0>         0.4072
     66 H24         5.6465   -5.1020    0.7198 H         1 <0>         0.1080
     67 H25         6.5617   -6.2245    2.7701 H         1 <0>         0.0884
     68 H26         4.9126   -6.2784    3.4377 H         1 <0>         0.0824
     69 H27         3.4642   -7.9830    2.8188 H         1 <0>         0.1280
     70 H28         2.9894  -10.0456    1.5706 H         1 <0>         0.1160
     71 H29         4.4680  -10.7929   -0.2153 H         1 <0>         0.1202
     72 H30         7.4567   -6.2685    0.9257 H         1 <0>         0.1538
     73 H31         8.9291   -7.0103   -0.8670 H         1 <0>         0.1185
     74 H32         8.4540   -9.0731   -2.1156 H         1 <0>         0.1181
     75 H33         6.5071  -10.4357   -1.5816 H         1 <0>         0.1217
     76 H34         5.1226   -2.9155    1.8690 H         1 <0>         0.0987
     77 H35         5.0741   -3.7954    3.4155 H         1 <0>         0.1045
     78 H36         9.4826   -2.0425    2.6833 H         1 <0>         0.0557
     79 H37         9.2552   -2.3035    4.4293 H         1 <0>         0.0689
     80 H38         9.4205   -3.6976    3.3351 H         1 <0>         0.0802
     81 H39         6.4292   -1.9757    4.8403 H         1 <0>         0.0615
     82 H40         7.3114   -0.7381    3.9139 H         1 <0>         0.0750
     83 H41         5.8590   -1.5003    3.2226 H         1 <0>         0.0726
@<TRIPOS>BOND
     1    1    2 1
     2    1   44 1
     3    1   45 1
     4    1   46 1
     5    2    3 1
     6    2    4 1
     7    2   47 1
     8    3   48 1
     9    3   49 1
    10    3   50 1
    11    4    5 1
    12    4   51 1
    13    4   52 1
    14    5    6 1
    15    5   12 1
    16    5   53 1
    17    6    7 1
    18    6   11 1
    19    6   54 1
    20    7    8 2
    21    7    9 1
    22    9   10 1
    23   10   55 1
    24   10   56 1
    25   10   57 1
    26   11   58 1
    27   12   13 am
    28   12   59 1
    29   13   14 2
    30   13   15 1
    31   15   16 1
    32   15   23 1
    33   15   60 1
    34   16   61 1
    35   16   62 1
    36   16   17 1
    37   17   18 2
    38   17   22 1
    39   18   19 1
    40   18   63 1
    41   19   21 2
    42   20   22 1
    43   21   64 1
    44   21   22 1
    45   23   24 am
    46   23   65 1
    47   24   25 2
    48   24   26 1
    49   26   27 1
    50   26   38 1
    51   26   66 1
    52   27   28 1
    53   27   67 1
    54   27   68 1
    55   28   33 ar
    56   28   29 ar
    57   29   30 ar
    58   29   69 1
    59   30   31 ar
    60   30   70 1
    61   31   32 ar
    62   31   71 1
    63   32   37 ar
    64   32   33 ar
    65   33   34 ar
    66   34   35 ar
    67   34   72 1
    68   35   36 ar
    69   35   73 1
    70   36   37 ar
    71   36   74 1
    72   37   75 1
    73   38   39 1
    74   38   76 1
    75   38   77 1
    76   39   40 2
    77   39   41 am
    78   41   42 1
    79   41   43 1
    80   42   78 1
    81   42   79 1
    82   42   80 1
    83   43   81 1
    84   43   82 1
    85   43   83 1
@<TRIPOS>MOLECULE
CHEMBL350425__3
   84    86     0     0     0
SMALL
USER_CHARGES

@<TRIPOS>ATOM
      1 C1         -1.0819    1.6770   -0.8276 C.3       1 <0>        -0.1441
      2 C2         -1.0680    0.1912   -1.1927 C.3       1 <0>        -0.1203
      3 C3         -0.0161   -0.0581   -2.2753 C.3       1 <0>        -0.1505
      4 C4         -0.7280   -0.6358    0.0488 C.3       1 <0>        -0.1340
      5 C5         -0.7871   -2.1247   -0.2984 C.3       1 <0>         0.1169
      6 C6         -2.2432   -2.5398   -0.5182 C.3       1 <0>         0.1098
      7 C7         -2.7550   -1.9207   -1.7933 C.2       1 <0>         0.4406
      8 O1         -3.7020   -1.1709   -1.7632 O.2       1 <0>        -0.4849
      9 O2         -2.1588   -2.2022   -2.9625 O.3       1 <0>        -0.3478
     10 C8         -2.6964   -1.5801   -4.1312 C.3       1 <0>         0.0299
     11 O3         -3.0377   -2.0909    0.5816 O.3       1 <0>        -0.5254
     12 N1         -0.2175   -2.9058    0.8024 N.am      1 <0>        -0.7137
     13 C9          1.1190   -3.0391    0.9131 C.2       1 <0>         0.5142
     14 O4          1.8530   -2.4394    0.1564 O.2       1 <0>        -0.5114
     15 C10         1.7015   -3.9333    1.9772 C.3       1 <0>         0.1310
     16 C11         1.2641   -3.4363    3.3566 C.3       1 <0>        -0.0717
     17 C12         1.7434   -4.3988    4.4125 C.2       1 <0>         0.0398
     18 C13         1.1126   -5.5222    4.8043 C.2       1 <0>         0.0562
     19 N2          1.8884   -6.0934    5.7768 N.pl3     1 <0>        -0.4987
     20 H1          1.6988   -6.9155    6.2553 H         1 <0>         0.4666
     21 C14         2.9670   -5.2985    5.9454 C.cat     1 <0>         0.3047
     22 N3          2.8760   -4.2896    5.1227 N.pl3     1 <0>        -0.4735
     23 N4          3.1637   -3.9076    1.8900 N.am      1 <0>        -0.7223
     24 C15         3.8847   -4.9488    2.3510 C.2       1 <0>         0.5304
     25 O5          3.3220   -5.9423    2.7598 O.2       1 <0>        -0.5168
     26 C16         5.3900   -4.8785    2.3583 C.3       1 <0>        -0.0854
     27 C17         5.9607   -6.2150    2.8369 C.3       1 <0>        -0.0623
     28 C18         7.4585   -6.1058    2.9617 C.ar      1 <0>        -0.0822
     29 C19         8.2610   -6.4969    1.9341 C.ar      1 <0>        -0.1049
     30 C20         9.6478   -6.4035    2.0312 C.ar      1 <0>        -0.1125
     31 C21        10.2405   -5.9188    3.1568 C.ar      1 <0>        -0.1004
     32 C22         9.4448   -5.5053    4.2384 C.ar      1 <0>        -0.0504
     33 C23         8.0338   -5.5945    4.1372 C.ar      1 <0>        -0.0425
     34 C24         7.2377   -5.1754    5.2171 C.ar      1 <0>        -0.1211
     35 C25         7.8302   -4.6853    6.3399 C.ar      1 <0>        -0.1101
     36 C26         9.2175   -4.5915    6.4369 C.ar      1 <0>        -0.1207
     37 C27        10.0205   -5.0001    5.4169 C.ar      1 <0>        -0.0936
     38 C28         5.8939   -4.5861    0.9436 C.3       1 <0>        -0.1455
     39 C29         5.3673   -5.6334   -0.0036 C.2       1 <0>         0.5074
     40 O6          4.5880   -6.4735    0.3936 O.2       1 <0>        -0.5233
     41 N5          5.7625   -5.6364   -1.2921 N.am      1 <0>        -0.6159
     42 C30         5.2506   -6.6544   -2.2129 C.3       1 <0>         0.0831
     43 C31         6.7038   -4.6216   -1.7720 C.3       1 <0>         0.0691
     44 H2         -1.3241    2.2662   -1.7120 H         1 <0>         0.0595
     45 H3         -1.8313    1.8546   -0.0563 H         1 <0>         0.0559
     46 H4         -0.1002    1.9686   -0.4544 H         1 <0>         0.0564
     47 H5         -2.0497   -0.1004   -1.5659 H         1 <0>         0.0785
     48 H6          0.0449   -1.1262   -2.4836 H         1 <0>         0.0612
     49 H7         -0.2970    0.4739   -3.1843 H         1 <0>         0.0560
     50 H8          0.9534    0.3005   -1.9294 H         1 <0>         0.0591
     51 H9          0.2753   -0.3820    0.3909 H         1 <0>         0.0857
     52 H10        -1.4470   -0.4181    0.8386 H         1 <0>         0.0713
     53 H11        -0.2156   -2.3086   -1.2081 H         1 <0>         0.1185
     54 H12        -2.3045   -3.6256   -0.5914 H         1 <0>         0.1478
     55 H13        -3.7379   -1.8772   -4.2545 H         1 <0>         0.0657
     56 H14        -2.6377   -0.4967   -4.0259 H         1 <0>         0.0650
     57 H15        -2.1238   -1.8917   -5.0048 H         1 <0>         0.1081
     58 H16        -3.0301   -1.1321    0.7068 H         1 <0>         0.3896
     59 H17        -0.8024   -3.3271    1.4516 H         1 <0>         0.4072
     60 H18         1.3466   -4.9531    1.8290 H         1 <0>         0.1293
     61 H19         1.6932   -2.4515    3.5409 H         1 <0>         0.1065
     62 H20         0.1766   -3.3711    3.3912 H         1 <0>         0.1253
     63 H21         0.1748   -5.8998    4.4245 H         1 <0>         0.2235
     64 H22         3.7734   -5.4713    6.6428 H         1 <0>         0.2609
     65 H23         3.6129   -3.1412    1.5004 H         1 <0>         0.4124
     66 H24         5.7134   -4.0838    3.0306 H         1 <0>         0.1032
     67 H25         5.5325   -6.4662    3.8073 H         1 <0>         0.0764
     68 H26         5.7119   -6.9949    2.1172 H         1 <0>         0.1013
     69 H27         7.8161   -6.8858    1.0301 H         1 <0>         0.1188
     70 H28        10.2617   -6.7207    1.2012 H         1 <0>         0.1268
     71 H29        11.3167   -5.8528    3.2181 H         1 <0>         0.1308
     72 H30         6.1615   -5.2415    5.1559 H         1 <0>         0.1131
     73 H31         7.2162   -4.3639    7.1682 H         1 <0>         0.1209
     74 H32         9.6622   -4.1985    7.3392 H         1 <0>         0.1261
     75 H33        11.0939   -4.9222    5.5065 H         1 <0>         0.1307
     76 H34         5.5438   -3.6029    0.6292 H         1 <0>         0.1004
     77 H35         6.9837   -4.6036    0.9351 H         1 <0>         0.1122
     78 H36         4.3369   -6.2918   -2.6839 H         1 <0>         0.0567
     79 H37         5.9978   -6.8596   -2.9795 H         1 <0>         0.0736
     80 H38         5.0362   -7.5692   -1.6604 H         1 <0>         0.0781
     81 H39         6.9707   -3.9563   -0.9508 H         1 <0>         0.0784
     82 H40         7.6019   -5.1093   -2.1509 H         1 <0>         0.0687
     83 H41         6.2393   -4.0441   -2.5712 H         1 <0>         0.0683
     84 H42         3.5243   -3.5729    5.0392 H         1 <0>         0.4584
@<TRIPOS>BOND
     1    1    2 1
     2    1   44 1
     3    1   45 1
     4    1   46 1
     5    2    3 1
     6    2    4 1
     7    2   47 1
     8    3   48 1
     9    3   49 1
    10    3   50 1
    11    4    5 1
    12    4   51 1
    13    4   52 1
    14    5    6 1
    15    5   12 1
    16    5   53 1
    17    6    7 1
    18    6   11 1
    19    6   54 1
    20    7    8 2
    21    7    9 1
    22    9   10 1
    23   10   55 1
    24   10   56 1
    25   10   57 1
    26   11   58 1
    27   12   13 am
    28   12   59 1
    29   13   14 2
    30   13   15 1
    31   15   16 1
    32   15   23 1
    33   15   60 1
    34   16   17 1
    35   16   61 1
    36   16   62 1
    37   17   22 1
    38   17   18 2
    39   18   19 1
    40   18   63 1
    41   19   20 1
    42   19   21 1
    43   21   22 2
    44   21   64 1
    45   22   84 1
    46   23   24 am
    47   23   65 1
    48   24   25 2
    49   24   26 1
    50   26   27 1
    51   26   38 1
    52   26   66 1
    53   27   28 1
    54   27   67 1
    55   27   68 1
    56   28   33 ar
    57   28   29 ar
    58   29   30 ar
    59   29   69 1
    60   30   31 ar
    61   30   70 1
    62   31   32 ar
    63   31   71 1
    64   32   37 ar
    65   32   33 ar
    66   33   34 ar
    67   34   35 ar
    68   34   72 1
    69   35   36 ar
    70   35   73 1
    71   36   37 ar
    72   36   74 1
    73   37   75 1
    74   38   39 1
    75   38   76 1
    76   38   77 1
    77   39   40 2
    78   39   41 am
    79   41   42 1
    80   41   43 1
    81   42   78 1
    82   42   79 1
    83   42   80 1
    84   43   81 1
    85   43   82 1
    86   43   83 1
@<TRIPOS>MOLECULE
CHEMBL350425__4
   83    85     0     0     0
SMALL
USER_CHARGES

@<TRIPOS>ATOM
      1 C1         -1.1816    1.5874   -0.7678 C.3       1 <0>        -0.1431
      2 C2         -1.1752    0.1017   -1.1333 C.3       1 <0>        -0.1197
      3 C3         -0.1341   -0.1501   -2.2259 C.3       1 <0>        -0.1501
      4 C4         -0.8258   -0.7266    0.1047 C.3       1 <0>        -0.1355
      5 C5         -0.8827   -2.2150   -0.2449 C.3       1 <0>         0.1189
      6 C6         -2.3390   -2.6342   -0.4553 C.3       1 <0>         0.1090
      7 C7         -2.8603   -2.0177   -1.7278 C.2       1 <0>         0.4437
      8 O1         -3.8047   -1.2649   -1.6917 O.2       1 <0>        -0.4891
      9 O2         -2.2755   -2.3051   -2.9014 O.3       1 <0>        -0.3468
     10 C8         -2.8217   -1.6852   -4.0673 C.3       1 <0>         0.0306
     11 O3         -3.1279   -2.1864    0.6489 O.3       1 <0>        -0.5246
     12 N1         -0.3031   -2.9964    0.8505 N.am      1 <0>        -0.7187
     13 C9          1.0348   -3.1240    0.9528 C.2       1 <0>         0.5175
     14 O4          1.7615   -2.5192    0.1932 O.2       1 <0>        -0.5214
     15 C10         1.6276   -4.0182    2.0111 C.3       1 <0>         0.1398
     16 C11         1.1963   -3.5266    3.3943 C.3       1 <0>        -0.0518
     17 C12         1.6863   -4.4894    4.4449 C.2       1 <0>        -0.0155
     18 C13         2.9020   -4.4951    5.0242 C.2       1 <0>        -0.0068
     19 N2          2.9380   -5.5074    5.9035 N.2       1 <0>        -0.4844
     20 H1          0.0666   -5.7740    4.7864 H         1 <0>         0.4152
     21 C14         1.7907   -6.1292    5.8910 C.2       1 <0>         0.1926
     22 N3          0.9792   -5.5227    4.9981 N.pl3     1 <0>        -0.5596
     23 N4          3.0891   -3.9857    1.9151 N.am      1 <0>        -0.7222
     24 C15         3.8175   -5.0249    2.3692 C.2       1 <0>         0.5395
     25 O5          3.2617   -6.0219    2.7790 O.2       1 <0>        -0.4991
     26 C16         5.3225   -4.9479    2.3676 C.3       1 <0>        -0.0797
     27 C17         5.9020   -6.2841    2.8364 C.3       1 <0>        -0.0674
     28 C18         7.4001   -6.1688    2.9525 C.ar      1 <0>        -0.0635
     29 C19         8.1980   -6.5515    1.9181 C.ar      1 <0>        -0.1192
     30 C20         9.5849   -6.4523    2.0071 C.ar      1 <0>        -0.1132
     31 C21        10.1824   -5.9703    3.1313 C.ar      1 <0>        -0.1104
     32 C22         9.3915   -5.5654    4.2197 C.ar      1 <0>        -0.0496
     33 C23         7.9803   -5.6605    4.1268 C.ar      1 <0>        -0.0463
     34 C24         7.1891   -5.2500    5.2135 C.ar      1 <0>        -0.1021
     35 C25         7.7863   -4.7626    6.3350 C.ar      1 <0>        -0.1152
     36 C26         9.1737   -4.6630    6.4239 C.ar      1 <0>        -0.1139
     37 C27         9.9722   -5.0633    5.3970 C.ar      1 <0>        -0.1111
     38 C28         5.8163   -4.6466    0.9512 C.3       1 <0>        -0.1421
     39 C29         5.2870   -5.6906    0.0020 C.2       1 <0>         0.5081
     40 O6          4.5103   -6.5332    0.3991 O.2       1 <0>        -0.5149
     41 N5          5.6766   -5.6879   -1.2882 N.am      1 <0>        -0.6222
     42 C30         5.1620   -6.7028   -2.2109 C.3       1 <0>         0.0854
     43 C31         6.6148   -4.6701   -1.7679 C.3       1 <0>         0.0754
     44 H2         -1.4305    2.1775   -1.6498 H         1 <0>         0.0568
     45 H3         -1.9232    1.7669    0.0106 H         1 <0>         0.0551
     46 H4         -0.1956    1.8763   -0.4037 H         1 <0>         0.0571
     47 H5         -2.1611   -0.1871   -1.4974 H         1 <0>         0.0770
     48 H6          0.8392    0.2071   -1.8896 H         1 <0>         0.0600
     49 H7         -0.0770   -1.2186   -2.4340 H         1 <0>         0.0618
     50 H8         -0.4229    0.3817   -3.1325 H         1 <0>         0.0531
     51 H9          0.1788   -0.4706    0.4415 H         1 <0>         0.0877
     52 H10        -1.5409   -0.5123    0.8989 H         1 <0>         0.0703
     53 H11        -0.3170   -2.3955   -1.1589 H         1 <0>         0.1157
     54 H12        -2.3978   -3.7202   -0.5270 H         1 <0>         0.1472
     55 H13        -2.2580   -2.0016   -4.9449 H         1 <0>         0.1064
     56 H14        -3.8651   -1.9794   -4.1803 H         1 <0>         0.0637
     57 H15        -2.7586   -0.6017   -3.9662 H         1 <0>         0.0640
     58 H16        -3.1221   -1.2274    0.7731 H         1 <0>         0.3884
     59 H17        -0.8821   -3.4219    1.5020 H         1 <0>         0.4067
     60 H18         1.2763   -5.0392    1.8626 H         1 <0>         0.1152
     61 H19         1.6222   -2.5403    3.5784 H         1 <0>         0.0954
     62 H20         0.1088   -3.4662    3.4356 H         1 <0>         0.0820
     63 H21         3.7069   -3.8055    4.8171 H         1 <0>         0.1540
     64 H22         1.5320   -6.9849    6.4969 H         1 <0>         0.2021
     65 H23         3.5326   -3.2164    1.5248 H         1 <0>         0.4036
     66 H24         5.6465   -4.1549    3.0417 H         1 <0>         0.1029
     67 H25         5.4810   -6.5418    3.8082 H         1 <0>         0.0895
     68 H26         5.6523   -7.0616    2.1145 H         1 <0>         0.0947
     69 H27         7.7492   -6.9381    1.0150 H         1 <0>         0.1157
     70 H28        10.1951   -6.7629    1.1719 H         1 <0>         0.1208
     71 H29        11.2586   -5.8998    3.1864 H         1 <0>         0.1249
     72 H30         6.1128   -5.3206    5.1587 H         1 <0>         0.1337
     73 H31         7.1760   -4.4478    7.1686 H         1 <0>         0.1234
     74 H32         9.6223   -4.2723    7.3253 H         1 <0>         0.1214
     75 H33        11.0459   -4.9810    5.4804 H         1 <0>         0.1248
     76 H34         5.4612   -3.6629    0.6441 H         1 <0>         0.0976
     77 H35         6.9061   -4.6607    0.9357 H         1 <0>         0.1067
     78 H36         4.2459   -6.3394   -2.6766 H         1 <0>         0.0531
     79 H37         5.9062   -6.9040   -2.9815 H         1 <0>         0.0691
     80 H38         4.9510   -7.6201   -1.6612 H         1 <0>         0.0768
     81 H39         7.6359   -5.0328   -1.6500 H         1 <0>         0.0591
     82 H40         6.4213   -4.4650   -2.8208 H         1 <0>         0.0735
     83 H41         6.4852   -3.7552   -1.1898 H         1 <0>         0.0729
@<TRIPOS>BOND
     1    1    2 1
     2    1   44 1
     3    1   45 1
     4    1   46 1
     5    2    3 1
     6    2    4 1
     7    2   47 1
     8    3   48 1
     9    3   49 1
    10    3   50 1
    11    4    5 1
    12    4   51 1
    13    4   52 1
    14    5    6 1
    15    5   12 1
    16    5   53 1
    17    6    7 1
    18    6   11 1
    19    6   54 1
    20    7    8 2
    21    7    9 1
    22    9   10 1
    23   10   55 1
    24   10   56 1
    25   10   57 1
    26   11   58 1
    27   12   13 am
    28   12   59 1
    29   13   14 2
    30   13   15 1
    31   15   16 1
    32   15   23 1
    33   15   60 1
    34   16   61 1
    35   16   62 1
    36   16   17 1
    37   17   18 2
    38   17   22 1
    39   18   19 1
    40   18   63 1
    41   19   21 2
    42   20   22 1
    43   21   64 1
    44   21   22 1
    45   23   24 am
    46   23   65 1
    47   24   25 2
    48   24   26 1
    49   26   27 1
    50   26   38 1
    51   26   66 1
    52   27   28 1
    53   27   67 1
    54   27   68 1
    55   28   33 ar
    56   28   29 ar
    57   29   30 ar
    58   29   69 1
    59   30   31 ar
    60   30   70 1
    61   31   32 ar
    62   31   71 1
    63   32   37 ar
    64   32   33 ar
    65   33   34 ar
    66   34   35 ar
    67   34   72 1
    68   35   36 ar
    69   35   73 1
    70   36   37 ar
    71   36   74 1
    72   37   75 1
    73   38   39 1
    74   38   76 1
    75   38   77 1
    76   39   40 2
    77   39   41 am
    78   41   42 1
    79   41   43 1
    80   42   78 1
    81   42   79 1
    82   42   80 1
    83   43   81 1
    84   43   82 1
    85   43   83 1
@<TRIPOS>MOLECULE
CHEMBL350425__5
   83    85     0     0     0
SMALL
USER_CHARGES

@<TRIPOS>ATOM
      1 C1         -1.2085    1.5591   -0.7736 C.3       1 <0>        -0.1427
      2 C2         -1.2136    0.0722   -1.1343 C.3       1 <0>        -0.1200
      3 C3         -0.1800   -0.1899   -2.2315 C.3       1 <0>        -0.1498
      4 C4         -0.8631   -0.7544    0.1045 C.3       1 <0>        -0.1353
      5 C5         -0.9267   -2.2435   -0.2411 C.3       1 <0>         0.1194
      6 C6         -2.3853   -2.6579   -0.4446 C.3       1 <0>         0.1087
      7 C7         -2.9091   -2.0441   -1.7174 C.2       1 <0>         0.4441
      8 O1         -3.8484   -1.2849   -1.6800 O.2       1 <0>        -0.4904
      9 O2         -2.3322   -2.3407   -2.8925 O.3       1 <0>        -0.3466
     10 C8         -2.8803   -1.7227   -4.0586 C.3       1 <0>         0.0307
     11 O3         -3.1684   -2.2033    0.6609 O.3       1 <0>        -0.5233
     12 N1         -0.3453   -3.0242    0.8537 N.am      1 <0>        -0.7181
     13 C9          0.9924   -3.1555    0.9515 C.2       1 <0>         0.5176
     14 O4          1.7182   -2.5544    0.1880 O.2       1 <0>        -0.5294
     15 C10         1.5865   -4.0491    2.0096 C.3       1 <0>         0.1425
     16 C11         1.1617   -3.5533    3.3933 C.3       1 <0>        -0.0401
     17 C12         1.6527   -4.5154    4.4442 C.2       1 <0>         0.0101
     18 C13         2.4104   -4.2015    5.5123 C.2       1 <0>        -0.0602
     19 N2          2.6247   -5.3646    6.2014 N.pl3     1 <0>        -0.5722
     20 H1          3.1369   -5.4631    7.0193 H         1 <0>         0.4159
     21 C14         1.9900   -6.3495    5.5299 C.2       1 <0>         0.1948
     22 N3          1.4067   -5.8333    4.4829 N.2       1 <0>        -0.4507
     23 N4          3.0478   -4.0211    1.9083 N.am      1 <0>        -0.7208
     24 C15         3.7748   -5.0614    2.3619 C.2       1 <0>         0.5287
     25 O5          3.2176   -6.0564    2.7747 O.2       1 <0>        -0.4848
     26 C16         5.2800   -4.9882    2.3562 C.3       1 <0>        -0.0809
     27 C17         5.8574   -6.3255    2.8243 C.3       1 <0>        -0.0650
     28 C18         7.3561   -6.2139    2.9363 C.ar      1 <0>        -0.0648
     29 C19         8.1502   -6.5992    1.9000 C.ar      1 <0>        -0.1164
     30 C20         9.5376   -6.5035    1.9852 C.ar      1 <0>        -0.1109
     31 C21        10.1393   -6.0222    3.1074 C.ar      1 <0>        -0.1107
     32 C22         9.3525   -5.6146    4.1977 C.ar      1 <0>        -0.0492
     33 C23         7.9408   -5.7062    4.1087 C.ar      1 <0>        -0.0455
     34 C24         7.1535   -5.2930    5.1972 C.ar      1 <0>        -0.1049
     35 C25         7.7550   -4.8064    6.3168 C.ar      1 <0>        -0.1173
     36 C26         9.1429   -4.7102    6.4018 C.ar      1 <0>        -0.1161
     37 C27         9.9376   -5.1131    5.3731 C.ar      1 <0>        -0.1063
     38 C28         5.7707   -4.6891    0.9382 C.3       1 <0>        -0.1399
     39 C29         5.2351   -5.7316   -0.0090 C.2       1 <0>         0.5076
     40 O6          4.4581   -6.5725    0.3911 O.2       1 <0>        -0.5116
     41 N5          5.6197   -5.7296   -1.3007 N.am      1 <0>        -0.6227
     42 C30         5.0990   -6.7431   -2.2216 C.3       1 <0>         0.0853
     43 C31         6.5583   -4.7139   -1.7840 C.3       1 <0>         0.0772
     44 H2         -1.4582    2.1479   -1.6562 H         1 <0>         0.0561
     45 H3         -1.9448    1.7458    0.0081 H         1 <0>         0.0550
     46 H4         -0.2187    1.8427   -0.4157 H         1 <0>         0.0565
     47 H5         -2.2033   -0.2114   -1.4922 H         1 <0>         0.0772
     48 H6          0.7973    0.1627   -1.9018 H         1 <0>         0.0594
     49 H7         -0.1304   -1.2595   -2.4359 H         1 <0>         0.0623
     50 H8         -0.4706    0.3402   -3.1385 H         1 <0>         0.0523
     51 H9          0.1436   -0.5013    0.4373 H         1 <0>         0.0871
     52 H10        -1.5747   -0.5355    0.9007 H         1 <0>         0.0702
     53 H11        -0.3653   -2.4281   -1.1570 H         1 <0>         0.1143
     54 H12        -2.4484   -3.7440   -0.5123 H         1 <0>         0.1482
     55 H13        -2.3231   -2.0469   -4.9375 H         1 <0>         0.1058
     56 H14        -3.9262   -2.0107   -4.1648 H         1 <0>         0.0634
     57 H15        -2.8097   -0.6392   -3.9628 H         1 <0>         0.0634
     58 H16        -3.1585   -1.2439    0.7817 H         1 <0>         0.3873
     59 H17        -0.9233   -3.4467    1.5083 H         1 <0>         0.4095
     60 H18         1.2318   -5.0695    1.8645 H         1 <0>         0.1253
     61 H19         1.5911   -2.5678    3.5738 H         1 <0>         0.0793
     62 H20         0.0745   -3.4897    3.4384 H         1 <0>         0.0847
     63 H21         2.7786   -3.2206    5.7745 H         1 <0>         0.1664
     64 H22         1.9657   -7.3910    5.8146 H         1 <0>         0.1998
     65 H23         3.4920   -3.2539    1.5147 H         1 <0>         0.3997
     66 H24         5.6077   -4.1955    3.0289 H         1 <0>         0.0981
     67 H25         5.4384   -6.5815    3.7974 H         1 <0>         0.0816
     68 H26         5.6038   -7.1029    2.1036 H         1 <0>         0.0974
     69 H27         7.6980   -6.9853    0.9983 H         1 <0>         0.1177
     70 H28        10.1448   -6.8161    1.1485 H         1 <0>         0.1226
     71 H29        11.2159   -5.9543    3.1595 H         1 <0>         0.1262
     72 H30         6.0769   -5.3610    5.1453 H         1 <0>         0.1251
     73 H31         7.1477   -4.4896    7.1518 H         1 <0>         0.1201
     74 H32         9.5948   -4.3200    7.3018 H         1 <0>         0.1223
     75 H33        11.0117   -5.0335    5.4535 H         1 <0>         0.1265
     76 H34         5.4179   -3.7043    0.6318 H         1 <0>         0.0972
     77 H35         6.8604   -4.7067    0.9196 H         1 <0>         0.1039
     78 H36         4.1820   -6.3775   -2.6836 H         1 <0>         0.0535
     79 H37         5.8397   -6.9460   -2.9951 H         1 <0>         0.0686
     80 H38         4.8880   -7.6600   -1.6712 H         1 <0>         0.0768
     81 H39         7.4942   -4.7916   -1.2307 H         1 <0>         0.0619
     82 H40         6.7495   -4.8716   -2.8454 H         1 <0>         0.0788
     83 H41         6.1295   -3.7229   -1.6353 H         1 <0>         0.0625
@<TRIPOS>BOND
     1    1    2 1
     2    1   44 1
     3    1   45 1
     4    1   46 1
     5    2    3 1
     6    2    4 1
     7    2   47 1
     8    3   48 1
     9    3   49 1
    10    3   50 1
    11    4    5 1
    12    4   51 1
    13    4   52 1
    14    5    6 1
    15    5   12 1
    16    5   53 1
    17    6    7 1
    18    6   11 1
    19    6   54 1
    20    7    8 2
    21    7    9 1
    22    9   10 1
    23   10   55 1
    24   10   56 1
    25   10   57 1
    26   11   58 1
    27   12   13 am
    28   12   59 1
    29   13   14 2
    30   13   15 1
    31   15   16 1
    32   15   23 1
    33   15   60 1
    34   16   17 1
    35   16   61 1
    36   16   62 1
    37   17   22 1
    38   17   18 2
    39   18   19 1
    40   18   63 1
    41   19   20 1
    42   19   21 1
    43   21   22 2
    44   21   64 1
    45   23   24 am
    46   23   65 1
    47   24   25 2
    48   24   26 1
    49   26   27 1
    50   26   38 1
    51   26   66 1
    52   27   28 1
    53   27   67 1
    54   27   68 1
    55   28   33 ar
    56   28   29 ar
    57   29   30 ar
    58   29   69 1
    59   30   31 ar
    60   30   70 1
    61   31   32 ar
    62   31   71 1
    63   32   37 ar
    64   32   33 ar
    65   33   34 ar
    66   34   35 ar
    67   34   72 1
    68   35   36 ar
    69   35   73 1
    70   36   37 ar
    71   36   74 1
    72   37   75 1
    73   38   39 1
    74   38   76 1
    75   38   77 1
    76   39   40 2
    77   39   41 am
    78   41   42 1
    79   41   43 1
    80   42   78 1
    81   42   79 1
    82   42   80 1
    83   43   81 1
    84   43   82 1
    85   43   83 1
@<TRIPOS>MOLECULE
CHEMBL350425__6
   84    86     0     0     0
SMALL
USER_CHARGES

@<TRIPOS>ATOM
      1 C1         -3.4185   -2.3413   -2.5434 C.3       1 <0>        -0.1449
      2 C2         -2.8154   -3.7423   -2.6635 C.3       1 <0>        -0.1194
      3 C3         -1.6825   -3.7234   -3.6918 C.3       1 <0>        -0.1502
      4 C4         -2.2635   -4.1782   -1.3047 C.3       1 <0>        -0.1360
      5 C5         -1.7253   -5.6067   -1.4073 C.3       1 <0>         0.1166
      6 C6         -2.8946   -6.5834   -1.5482 C.3       1 <0>         0.1108
      7 C7         -3.5370   -6.4063   -2.8999 C.2       1 <0>         0.4397
      8 O1         -4.6983   -6.0826   -2.9791 O.2       1 <0>        -0.4837
      9 O2         -2.8189   -6.6083   -4.0158 O.3       1 <0>        -0.3481
     10 C8         -3.4918   -6.4226   -5.2627 C.3       1 <0>         0.0298
     11 O3         -3.8580   -6.3237   -0.5252 O.3       1 <0>        -0.5268
     12 N1         -0.9626   -5.9292   -0.1988 N.am      1 <0>        -0.7140
     13 C9          0.3138   -5.5138   -0.0767 C.2       1 <0>         0.5126
     14 O4          0.8020   -4.7971   -0.9245 O.2       1 <0>        -0.5067
     15 C10         1.1342   -5.9398    1.1135 C.3       1 <0>         0.1300
     16 C11         1.2379   -7.4661    1.1414 C.3       1 <0>        -0.0723
     17 C12         1.9525   -7.8981    2.3959 C.2       1 <0>         0.0423
     18 C13         3.2870   -7.9735    2.5604 C.2       1 <0>         0.0456
     19 N2          3.5044   -8.4059    3.8408 N.pl3     1 <0>        -0.5010
     20 H1          4.3666   -8.5589    4.2581 H         1 <0>         0.4657
     21 C14         2.2943   -8.5798    4.4146 C.cat     1 <0>         0.3120
     22 N3          1.3710   -8.2694    3.5461 N.pl3     1 <0>        -0.4672
     23 N4          2.4762   -5.3609    1.0139 N.am      1 <0>        -0.7135
     24 C15         3.2085   -5.1617    2.1277 C.2       1 <0>         0.5275
     25 O5          2.7565   -5.4618    3.2124 O.2       1 <0>        -0.5406
     26 C16         4.5891   -4.5662    2.0253 C.3       1 <0>        -0.0918
     27 C17         5.1984   -4.4476    3.4238 C.3       1 <0>        -0.0542
     28 C18         6.6342   -4.0042    3.3102 C.ar      1 <0>        -0.0681
     29 C19         7.6116   -4.9127    3.0416 C.ar      1 <0>        -0.0834
     30 C20         8.9445   -4.5215    2.9330 C.ar      1 <0>        -0.1053
     31 C21         9.3080   -3.2195    3.0927 C.ar      1 <0>        -0.1033
     32 C22         8.3269   -2.2530    3.3709 C.ar      1 <0>        -0.0437
     33 C23         6.9702   -2.6500    3.4753 C.ar      1 <0>        -0.0366
     34 C24         5.9882   -1.6821    3.7478 C.ar      1 <0>        -0.1217
     35 C25         6.3510   -0.3795    3.9015 C.ar      1 <0>        -0.1096
     36 C26         7.6843    0.0119    3.7925 C.ar      1 <0>        -0.1186
     37 C27         8.6639   -0.8993    3.5428 C.ar      1 <0>        -0.1015
     38 C28         4.4997   -3.1779    1.3886 C.3       1 <0>        -0.1409
     39 C29         5.8453   -2.7943    0.8290 C.2       1 <0>         0.5170
     40 O6          6.7418   -3.6104    0.7921 O.2       1 <0>        -0.5190
     41 N5          6.0526   -1.5443    0.3695 N.am      1 <0>        -0.6116
     42 C30         7.3864   -1.1425   -0.0841 C.3       1 <0>         0.0884
     43 C31         4.9442   -0.5875    0.3237 C.3       1 <0>         0.0736
     44 H2         -3.8116   -2.0308   -3.5115 H         1 <0>         0.0598
     45 H3         -4.2255   -2.3548   -1.8109 H         1 <0>         0.0560
     46 H4         -2.6480   -1.6404   -2.2223 H         1 <0>         0.0570
     47 H5         -3.5859   -4.4433   -2.9846 H         1 <0>         0.0779
     48 H6         -1.2064   -4.7033   -3.7258 H         1 <0>         0.0609
     49 H7         -2.0878   -3.4821   -4.6745 H         1 <0>         0.0563
     50 H8         -0.9465   -2.9714   -3.4077 H         1 <0>         0.0597
     51 H9         -1.4579   -3.5069   -1.0074 H         1 <0>         0.0864
     52 H10        -3.0595   -4.1424   -0.5609 H         1 <0>         0.0710
     53 H11        -1.0764   -5.6887   -2.2793 H         1 <0>         0.1207
     54 H12        -2.5281   -7.6053   -1.4511 H         1 <0>         0.1466
     55 H13        -4.3338   -7.1119   -5.3274 H         1 <0>         0.0656
     56 H14        -3.8556   -5.3973   -5.3301 H         1 <0>         0.0654
     57 H15        -2.7994   -6.6170   -6.0818 H         1 <0>         0.1086
     58 H16        -4.2276   -5.4305   -0.5507 H         1 <0>         0.3913
     59 H17        -1.3761   -6.4416    0.5134 H         1 <0>         0.4062
     60 H18         0.6551   -5.5914    2.0285 H         1 <0>         0.1235
     61 H19         0.2375   -7.8986    1.1259 H         1 <0>         0.1117
     62 H20         1.7953   -7.8084    0.2695 H         1 <0>         0.1231
     63 H21         4.0408   -7.7384    1.8236 H         1 <0>         0.2149
     64 H22         2.1197   -8.9160    5.4259 H         1 <0>         0.2637
     65 H23         2.8378   -5.1209    0.1464 H         1 <0>         0.4194
     66 H24         5.2172   -5.2090    1.4087 H         1 <0>         0.1212
     67 H25         4.6368   -3.7154    4.0039 H         1 <0>         0.0800
     68 H26         5.1555   -5.4161    3.9221 H         1 <0>         0.0756
     69 H27         7.3501   -5.9524    2.9111 H         1 <0>         0.1097
     70 H28         9.7006   -5.2625    2.7192 H         1 <0>         0.1185
     71 H29        10.3452   -2.9309    3.0064 H         1 <0>         0.1230
     72 H30         4.9510   -1.9705    3.8343 H         1 <0>         0.1191
     73 H31         5.5944    0.3622    4.1109 H         1 <0>         0.1193
     74 H32         7.9452    1.0522    3.9186 H         1 <0>         0.1217
     75 H33         9.6929   -0.5816    3.4617 H         1 <0>         0.1253
     76 H34         3.7631   -3.1933    0.5852 H         1 <0>         0.0973
     77 H35         4.1993   -2.4508    2.1430 H         1 <0>         0.1005
     78 H36         7.4574   -1.2724   -1.1640 H         1 <0>         0.0536
     79 H37         7.5557   -0.0956    0.1678 H         1 <0>         0.0665
     80 H38         8.1385   -1.7604    0.4064 H         1 <0>         0.0793
     81 H39         4.0379   -1.0632    0.6983 H         1 <0>         0.0738
     82 H40         5.1840    0.2763    0.9437 H         1 <0>         0.0647
     83 H41         4.7860   -0.2637   -0.7050 H         1 <0>         0.0652
     84 H42         0.4150   -8.3036    3.7065 H         1 <0>         0.4621
@<TRIPOS>BOND
     1    1    2 1
     2    1   44 1
     3    1   45 1
     4    1   46 1
     5    2    3 1
     6    2    4 1
     7    2   47 1
     8    3   48 1
     9    3   49 1
    10    3   50 1
    11    4    5 1
    12    4   51 1
    13    4   52 1
    14    5    6 1
    15    5   12 1
    16    5   53 1
    17    6    7 1
    18    6   11 1
    19    6   54 1
    20    7    8 2
    21    7    9 1
    22    9   10 1
    23   10   55 1
    24   10   56 1
    25   10   57 1
    26   11   58 1
    27   12   13 am
    28   12   59 1
    29   13   14 2
    30   13   15 1
    31   15   16 1
    32   15   23 1
    33   15   60 1
    34   16   17 1
    35   16   61 1
    36   16   62 1
    37   17   22 1
    38   17   18 2
    39   18   19 1
    40   18   63 1
    41   19   20 1
    42   19   21 1
    43   21   22 2
    44   21   64 1
    45   22   84 1
    46   23   24 am
    47   23   65 1
    48   24   25 2
    49   24   26 1
    50   26   27 1
    51   26   38 1
    52   26   66 1
    53   27   28 1
    54   27   67 1
    55   27   68 1
    56   28   33 ar
    57   28   29 ar
    58   29   30 ar
    59   29   69 1
    60   30   31 ar
    61   30   70 1
    62   31   32 ar
    63   31   71 1
    64   32   37 ar
    65   32   33 ar
    66   33   34 ar
    67   34   35 ar
    68   34   72 1
    69   35   36 ar
    70   35   73 1
    71   36   37 ar
    72   36   74 1
    73   37   75 1
    74   38   39 1
    75   38   76 1
    76   38   77 1
    77   39   40 2
    78   39   41 am
    79   41   42 1
    80   41   43 1
    81   42   78 1
    82   42   79 1
    83   42   80 1
    84   43   81 1
    85   43   82 1
    86   43   83 1
@<TRIPOS>MOLECULE
CHEMBL350425__7
   83    85     0     0     0
SMALL
USER_CHARGES

@<TRIPOS>ATOM
      1 C1         -1.4449    1.3604   -0.9557 C.3       1 <0>        -0.1449
      2 C2         -0.9348    0.0477   -1.5535 C.3       1 <0>        -0.1101
      3 C3          0.4120    0.2885   -2.2383 C.3       1 <0>        -0.1460
      4 C4         -0.7628   -0.9871   -0.4397 C.3       1 <0>        -0.1361
      5 C5         -0.3901   -2.3386   -1.0523 C.3       1 <0>         0.1191
      6 C6         -1.6277   -2.9644   -1.6984 C.3       1 <0>         0.1097
      7 C7         -2.0172   -2.1657   -2.9155 C.2       1 <0>         0.4410
      8 O1         -3.1130   -1.6611   -2.9818 O.2       1 <0>        -0.4889
      9 O2         -1.1466   -2.0148   -3.9260 O.3       1 <0>        -0.3483
     10 C8         -1.5825   -1.2452   -5.0484 C.3       1 <0>         0.0308
     11 O3         -2.7069   -2.9619   -0.7617 O.3       1 <0>        -0.5237
     12 N1          0.1154   -3.2276   -0.0032 N.am      1 <0>        -0.7174
     13 C9          1.3990   -3.1357    0.3973 C.2       1 <0>         0.5143
     14 O4          2.1108   -2.2587   -0.0446 O.2       1 <0>        -0.5242
     15 C10         1.9498   -4.1227    1.3940 C.3       1 <0>         0.1336
     16 C11         1.8410   -5.5382    0.8236 C.3       1 <0>        -0.0483
     17 C12         2.3065   -6.5328    1.8557 C.2       1 <0>        -0.0237
     18 C13         1.5660   -7.0708    2.8434 C.2       1 <0>        -0.0016
     19 N2          2.3491   -7.9073    3.5406 N.2       1 <0>        -0.4808
     20 H1          4.3210   -6.8762    1.3930 H         1 <0>         0.4112
     21 C14         3.5467   -7.9081    3.0224 C.2       1 <0>         0.2021
     22 N3          3.5618   -7.0675    1.9656 N.pl3     1 <0>        -0.5614
     23 N4          3.3558   -3.8115    1.6634 N.am      1 <0>        -0.7178
     24 C15         3.8494   -3.9482    2.9101 C.2       1 <0>         0.5183
     25 O5          3.1554   -4.4132    3.7894 O.2       1 <0>        -0.4961
     26 C16         5.2635   -3.5233    3.2115 C.3       1 <0>        -0.0836
     27 C17         5.4987   -3.5691    4.7226 C.3       1 <0>        -0.0642
     28 C18         5.4038   -4.9944    5.2028 C.ar      1 <0>        -0.0734
     29 C19         4.2936   -5.4208    5.8651 C.ar      1 <0>        -0.0653
     30 C20         4.1878   -6.7347    6.3165 C.ar      1 <0>        -0.0970
     31 C21         5.1919   -7.6301    6.1087 C.ar      1 <0>        -0.1134
     32 C22         6.3533   -7.2267    5.4288 C.ar      1 <0>        -0.0554
     33 C23         6.4583   -5.8917    4.9640 C.ar      1 <0>        -0.0456
     34 C24         7.6177   -5.4899    4.2787 C.ar      1 <0>        -0.1159
     35 C25         8.6189   -6.3868    4.0658 C.ar      1 <0>        -0.1259
     36 C26         8.5129   -7.7013    4.5171 C.ar      1 <0>        -0.1218
     37 C27         7.4111   -8.1225    5.1959 C.ar      1 <0>        -0.1128
     38 C28         5.4868   -2.0974    2.7036 C.3       1 <0>        -0.1369
     39 C29         6.9407   -1.7317    2.8563 C.2       1 <0>         0.5164
     40 O6          7.7135   -2.5170    3.3632 O.2       1 <0>        -0.5308
     41 N5          7.3822   -0.5320    2.4295 N.am      1 <0>        -0.6202
     42 C30         8.8125   -0.2186    2.4768 C.3       1 <0>         0.0808
     43 C31         6.4318    0.4588    1.9183 C.3       1 <0>         0.0733
     44 H2         -1.5674    2.0976   -1.7492 H         1 <0>         0.0570
     45 H3         -2.4044    1.1889   -0.4678 H         1 <0>         0.0554
     46 H4         -0.7263    1.7300   -0.2242 H         1 <0>         0.0573
     47 H5         -1.6534   -0.3219   -2.2850 H         1 <0>         0.0697
     48 H6          1.1143    0.7117   -1.5201 H         1 <0>         0.0589
     49 H7          0.8026   -0.6571   -2.6145 H         1 <0>         0.0609
     50 H8          0.2787    0.9824   -3.0683 H         1 <0>         0.0530
     51 H9          0.0284   -0.6643    0.2371 H         1 <0>         0.0867
     52 H10        -1.6969   -1.0841    0.1135 H         1 <0>         0.0694
     53 H11         0.3811   -2.1943   -1.8089 H         1 <0>         0.1165
     54 H12        -1.4047   -3.9899   -1.9929 H         1 <0>         0.1479
     55 H13        -0.7856   -1.2019   -5.7908 H         1 <0>         0.1062
     56 H14        -2.4640   -1.7116   -5.4884 H         1 <0>         0.0636
     57 H15        -1.8305   -0.2352   -4.7222 H         1 <0>         0.0633
     58 H16        -2.9598   -2.0802   -0.4554 H         1 <0>         0.3882
     59 H17        -0.4738   -3.8822    0.4032 H         1 <0>         0.4094
     60 H18         1.3797   -4.0596    2.3209 H         1 <0>         0.1271
     61 H19         0.8035   -5.7454    0.5614 H         1 <0>         0.0991
     62 H20         2.4642   -5.6200   -0.0669 H         1 <0>         0.0773
     63 H21         0.5241   -6.8648    3.0398 H         1 <0>         0.1603
     64 H22         4.3860   -8.4876    3.3777 H         1 <0>         0.1937
     65 H23         3.9316   -3.5071    0.9446 H         1 <0>         0.4038
     66 H24         5.9596   -4.1991    2.7148 H         1 <0>         0.1059
     67 H25         6.4896   -3.1750    4.9482 H         1 <0>         0.0965
     68 H26         4.7440   -2.9651    5.2263 H         1 <0>         0.0723
     69 H27         3.4827   -4.7301    6.0437 H         1 <0>         0.1203
     70 H28         3.2961   -7.0473    6.8395 H         1 <0>         0.1163
     71 H29         5.0963   -8.6452    6.4649 H         1 <0>         0.1197
     72 H30         7.7135   -4.4748    3.9227 H         1 <0>         0.1517
     73 H31         9.5087   -6.0754    3.5390 H         1 <0>         0.1155
     74 H32         9.3219   -8.3931    4.3346 H         1 <0>         0.1162
     75 H33         7.3432   -9.1439    5.5403 H         1 <0>         0.1214
     76 H34         5.2056   -2.0380    1.6522 H         1 <0>         0.1006
     77 H35         4.8753   -1.4055    3.2828 H         1 <0>         0.1019
     78 H36         9.2659   -0.4436    1.5114 H         1 <0>         0.0563
     79 H37         8.9454    0.8393    2.7030 H         1 <0>         0.0688
     80 H38         9.2905   -0.8185    3.2513 H         1 <0>         0.0825
     81 H39         6.0816    1.0839    2.7397 H         1 <0>         0.0600
     82 H40         6.9234    1.0821    1.1713 H         1 <0>         0.0750
     83 H41         5.5834   -0.0525    1.4635 H         1 <0>         0.0757
@<TRIPOS>BOND
     1    1    2 1
     2    1   44 1
     3    1   45 1
     4    1   46 1
     5    2    3 1
     6    2    4 1
     7    2   47 1
     8    3   48 1
     9    3   49 1
    10    3   50 1
    11    4    5 1
    12    4   51 1
    13    4   52 1
    14    5    6 1
    15    5   12 1
    16    5   53 1
    17    6    7 1
    18    6   11 1
    19    6   54 1
    20    7    8 2
    21    7    9 1
    22    9   10 1
    23   10   55 1
    24   10   56 1
    25   10   57 1
    26   11   58 1
    27   12   13 am
    28   12   59 1
    29   13   14 2
    30   13   15 1
    31   15   16 1
    32   15   23 1
    33   15   60 1
    34   16   61 1
    35   16   62 1
    36   16   17 1
    37   17   18 2
    38   17   22 1
    39   18   19 1
    40   18   63 1
    41   19   21 2
    42   20   22 1
    43   21   64 1
    44   21   22 1
    45   23   24 am
    46   23   65 1
    47   24   25 2
    48   24   26 1
    49   26   27 1
    50   26   38 1
    51   26   66 1
    52   27   28 1
    53   27   67 1
    54   27   68 1
    55   28   33 ar
    56   28   29 ar
    57   29   30 ar
    58   29   69 1
    59   30   31 ar
    60   30   70 1
    61   31   32 ar
    62   31   71 1
    63   32   37 ar
    64   32   33 ar
    65   33   34 ar
    66   34   35 ar
    67   34   72 1
    68   35   36 ar
    69   35   73 1
    70   36   37 ar
    71   36   74 1
    72   37   75 1
    73   38   39 1
    74   38   76 1
    75   38   77 1
    76   39   40 2
    77   39   41 am
    78   41   42 1
    79   41   43 1
    80   42   78 1
    81   42   79 1
    82   42   80 1
    83   43   81 1
    84   43   82 1
    85   43   83 1
@<TRIPOS>MOLECULE
CHEMBL350425__8
   83    85     0     0     0
SMALL
USER_CHARGES

@<TRIPOS>ATOM
      1 C1         -3.3938   -2.2955   -2.5646 C.3       1 <0>        -0.1433
      2 C2         -2.7981   -3.7001   -2.6790 C.3       1 <0>        -0.1188
      3 C3         -1.6633   -3.6908   -3.7052 C.3       1 <0>        -0.1496
      4 C4         -2.2511   -4.1346   -1.3177 C.3       1 <0>        -0.1362
      5 C5         -1.7202   -5.5662   -1.4147 C.3       1 <0>         0.1189
      6 C6         -2.8944   -6.5372   -1.5545 C.3       1 <0>         0.1095
      7 C7         -3.5335   -6.3610   -2.9078 C.2       1 <0>         0.4434
      8 O1         -4.6931   -6.0315   -2.9900 O.2       1 <0>        -0.4903
      9 O2         -2.8147   -6.5702   -4.0219 O.3       1 <0>        -0.3466
     10 C8         -3.4845   -6.3849   -5.2705 C.3       1 <0>         0.0306
     11 O3         -3.8581   -6.2692   -0.5340 O.3       1 <0>        -0.5247
     12 N1         -0.9613   -5.8887   -0.2038 N.am      1 <0>        -0.7187
     13 C9          0.3169   -5.4796   -0.0807 C.2       1 <0>         0.5155
     14 O4          0.8105   -4.7683   -0.9300 O.2       1 <0>        -0.5241
     15 C10         1.1330   -5.9061    1.1123 C.3       1 <0>         0.1434
     16 C11         1.2287   -7.4327    1.1454 C.3       1 <0>        -0.0402
     17 C12         1.9388   -7.8644    2.4026 C.2       1 <0>         0.0026
     18 C13         1.4691   -8.7331    3.3182 C.2       1 <0>        -0.0531
     19 N2          2.4263   -8.8393    4.2909 N.pl3     1 <0>        -0.5713
     20 H1          2.3793   -9.3917    5.0868 H         1 <0>         0.4171
     21 C14         3.4482   -8.0311    3.9356 C.2       1 <0>         0.1877
     22 N3          3.1518   -7.4552    2.8027 N.2       1 <0>        -0.4482
     23 N4          2.4782   -5.3345    1.0133 N.am      1 <0>        -0.7161
     24 C15         3.2096   -5.1355    2.1278 C.2       1 <0>         0.5515
     25 O5          2.7540   -5.4296    3.2126 O.2       1 <0>        -0.5148
     26 C16         4.5934   -4.5475    2.0260 C.3       1 <0>        -0.0787
     27 C17         5.2008   -4.4276    3.4251 C.3       1 <0>        -0.0562
     28 C18         6.6393   -3.9927    3.3127 C.ar      1 <0>        -0.0533
     29 C19         7.6118   -4.9074    3.0473 C.ar      1 <0>        -0.0872
     30 C20         8.9471   -4.5242    2.9398 C.ar      1 <0>        -0.0982
     31 C21         9.3179   -3.2239    3.0974 C.ar      1 <0>        -0.1172
     32 C22         8.3421   -2.2512    3.3722 C.ar      1 <0>        -0.0432
     33 C23         6.9829   -2.6401    3.4754 C.ar      1 <0>        -0.0390
     34 C24         6.0061   -1.6660    3.7445 C.ar      1 <0>        -0.1125
     35 C25         6.3762   -0.3652    3.8962 C.ar      1 <0>        -0.1190
     36 C26         7.7119    0.0182    3.7882 C.ar      1 <0>        -0.1208
     37 C27         8.6866   -0.8992    3.5417 C.ar      1 <0>        -0.1062
     38 C28         4.5124   -3.1608    1.3845 C.3       1 <0>        -0.1389
     39 C29         5.8612   -2.7859    0.8267 C.2       1 <0>         0.5177
     40 O6          6.7536   -3.6064    0.7947 O.2       1 <0>        -0.5166
     41 N5          6.0756   -1.5386    0.3632 N.am      1 <0>        -0.6171
     42 C30         7.4123   -1.1450   -0.0893 C.3       1 <0>         0.0904
     43 C31         4.9721   -0.5764    0.3118 C.3       1 <0>         0.0802
     44 H2         -3.7834   -1.9860   -3.5344 H         1 <0>         0.0565
     45 H3         -4.2022   -2.3021   -1.8335 H         1 <0>         0.0548
     46 H4         -2.6201   -1.5977   -2.2444 H         1 <0>         0.0567
     47 H5         -3.5718   -4.3980   -2.9992 H         1 <0>         0.0763
     48 H6         -0.9237   -2.9419   -3.4222 H         1 <0>         0.0597
     49 H7         -1.1924   -4.6734   -3.7351 H         1 <0>         0.0626
     50 H8         -2.0655   -3.4506   -4.6894 H         1 <0>         0.0526
     51 H9         -1.4425   -3.4665   -1.0211 H         1 <0>         0.0871
     52 H10        -3.0483   -4.0922   -0.5755 H         1 <0>         0.0694
     53 H11        -1.0702   -5.6545   -2.2852 H         1 <0>         0.1163
     54 H12        -2.5334   -7.5607   -1.4536 H         1 <0>         0.1481
     55 H13        -2.7917   -6.5855   -6.0878 H         1 <0>         0.1064
     56 H14        -4.3299   -7.0700   -5.3345 H         1 <0>         0.0633
     57 H15        -3.8428   -5.3579   -5.3417 H         1 <0>         0.0636
     58 H16        -4.2230   -5.3742   -0.5628 H         1 <0>         0.3882
     59 H17        -1.3788   -6.3967    0.5093 H         1 <0>         0.4082
     60 H18         0.6541   -5.5522    2.0253 H         1 <0>         0.1126
     61 H19         0.2260   -7.8600    1.1294 H         1 <0>         0.0842
     62 H20         1.7858   -7.7807    0.2756 H         1 <0>         0.0817
     63 H21         0.5196   -9.2470    3.2905 H         1 <0>         0.1691
     64 H22         4.3613   -7.8883    4.4944 H         1 <0>         0.1976
     65 H23         2.8426   -5.0992    0.1457 H         1 <0>         0.4041
     66 H24         5.2193   -5.1956    1.4125 H         1 <0>         0.1142
     67 H25         4.6423   -3.6902    4.0016 H         1 <0>         0.0726
     68 H26         5.1515   -5.3941    3.9267 H         1 <0>         0.0864
     69 H27         7.3445   -5.9459    2.9186 H         1 <0>         0.1159
     70 H28         9.6992   -5.2699    2.7286 H         1 <0>         0.1158
     71 H29        10.3568   -2.9416    3.0119 H         1 <0>         0.1184
     72 H30         4.9672   -1.9483    3.8302 H         1 <0>         0.1220
     73 H31         5.6236    0.3813    4.1029 H         1 <0>         0.1164
     74 H32         7.9787    1.0573    3.9125 H         1 <0>         0.1169
     75 H33         9.7175   -0.5875    3.4615 H         1 <0>         0.1208
     76 H34         3.7775   -3.1752    0.5796 H         1 <0>         0.0947
     77 H35         4.2140   -2.4298    2.1360 H         1 <0>         0.0940
     78 H36         7.4846   -1.2789   -1.1686 H         1 <0>         0.0490
     79 H37         7.5865   -0.0982    0.1595 H         1 <0>         0.0625
     80 H38         8.1603   -1.7652    0.4047 H         1 <0>         0.0779
     81 H39         4.5793   -0.4201    1.3165 H         1 <0>         0.0592
     82 H40         5.3342    0.3707   -0.0882 H         1 <0>         0.0758
     83 H41         4.1818   -0.9639   -0.3310 H         1 <0>         0.0598
@<TRIPOS>BOND
     1    1    2 1
     2    1   44 1
     3    1   45 1
     4    1   46 1
     5    2    3 1
     6    2    4 1
     7    2   47 1
     8    3   48 1
     9    3   49 1
    10    3   50 1
    11    4    5 1
    12    4   51 1
    13    4   52 1
    14    5    6 1
    15    5   12 1
    16    5   53 1
    17    6    7 1
    18    6   11 1
    19    6   54 1
    20    7    8 2
    21    7    9 1
    22    9   10 1
    23   10   55 1
    24   10   56 1
    25   10   57 1
    26   11   58 1
    27   12   13 am
    28   12   59 1
    29   13   14 2
    30   13   15 1
    31   15   16 1
    32   15   23 1
    33   15   60 1
    34   16   17 1
    35   16   61 1
    36   16   62 1
    37   17   22 1
    38   17   18 2
    39   18   19 1
    40   18   63 1
    41   19   20 1
    42   19   21 1
    43   21   22 2
    44   21   64 1
    45   23   24 am
    46   23   65 1
    47   24   25 2
    48   24   26 1
    49   26   27 1
    50   26   38 1
    51   26   66 1
    52   27   28 1
    53   27   67 1
    54   27   68 1
    55   28   33 ar
    56   28   29 ar
    57   29   30 ar
    58   29   69 1
    59   30   31 ar
    60   30   70 1
    61   31   32 ar
    62   31   71 1
    63   32   37 ar
    64   32   33 ar
    65   33   34 ar
    66   34   35 ar
    67   34   72 1
    68   35   36 ar
    69   35   73 1
    70   36   37 ar
    71   36   74 1
    72   37   75 1
    73   38   39 1
    74   38   76 1
    75   38   77 1
    76   39   40 2
    77   39   41 am
    78   41   42 1
    79   41   43 1
    80   42   78 1
    81   42   79 1
    82   42   80 1
    83   43   81 1
    84   43   82 1
    85   43   83 1
@<TRIPOS>MOLECULE
CHEMBL350425__9
   84    86     0     0     0
SMALL
USER_CHARGES

@<TRIPOS>ATOM
      1 C1          2.1950    4.4085    1.5086 C.3       1 <0>        -0.1455
      2 C2          2.1019    3.3368    0.4207 C.3       1 <0>        -0.1172
      3 C3          3.4439    3.2304   -0.3065 C.3       1 <0>        -0.1498
      4 C4          1.7600    1.9894    1.0599 C.3       1 <0>        -0.1366
      5 C5          1.5924    0.9335   -0.0346 C.3       1 <0>         0.1166
      6 C6          0.2896    1.1894   -0.7949 C.3       1 <0>         0.1112
      7 C7          0.4177    2.4577   -1.5985 C.2       1 <0>         0.4396
      8 O1         -0.3329    3.3819   -1.3926 O.2       1 <0>        -0.4839
      9 O2          1.3658    2.5608   -2.5431 O.3       1 <0>        -0.3484
     10 C8          1.4298    3.7916   -3.2664 C.3       1 <0>         0.0299
     11 O3         -0.7868    1.3218    0.1357 O.3       1 <0>        -0.5270
     12 N1          1.5491   -0.3983    0.5743 N.am      1 <0>        -0.7140
     13 C9          2.6945   -1.0189    0.9198 C.2       1 <0>         0.5113
     14 O4          3.7546   -0.4398    0.8112 O.2       1 <0>        -0.5049
     15 C10         2.6580   -2.4324    1.4410 C.3       1 <0>         0.1306
     16 C11         2.0449   -3.3508    0.3820 C.3       1 <0>        -0.0720
     17 C12         1.8952   -4.7397    0.9474 C.2       1 <0>         0.0452
     18 C13         2.8492   -5.6898    0.9753 C.2       1 <0>         0.0468
     19 N2          2.2951   -6.7900    1.5721 N.pl3     1 <0>        -0.5007
     20 H1          2.7354   -7.6384    1.7371 H         1 <0>         0.4648
     21 C14         1.0209   -6.4737    1.8883 C.cat     1 <0>         0.3120
     22 N3          0.7903   -5.2443    1.5163 N.pl3     1 <0>        -0.4666
     23 N4          4.0209   -2.8768    1.7430 N.am      1 <0>        -0.7138
     24 C15         4.2265   -3.8493    2.6532 C.2       1 <0>         0.5304
     25 O5          3.2810   -4.4131    3.1623 O.2       1 <0>        -0.5417
     26 C16         5.6311   -4.2360    3.0385 C.3       1 <0>        -0.1010
     27 C17         5.5859   -5.4044    4.0253 C.3       1 <0>        -0.0516
     28 C18         6.9778   -5.6938    4.5252 C.ar      1 <0>        -0.0685
     29 C19         7.6738   -6.7560    4.0350 C.ar      1 <0>        -0.1159
     30 C20         8.9616   -7.0393    4.4851 C.ar      1 <0>        -0.1186
     31 C21         9.5611   -6.2623    5.4285 C.ar      1 <0>        -0.0967
     32 C22         8.8739   -5.1572    5.9580 C.ar      1 <0>        -0.0428
     33 C23         7.5661   -4.8653    5.4956 C.ar      1 <0>        -0.0137
     34 C24         6.8811   -3.7563    6.0211 C.ar      1 <0>        -0.1093
     35 C25         7.4828   -2.9762    6.9599 C.ar      1 <0>        -0.1106
     36 C26         8.7712   -3.2593    7.4098 C.ar      1 <0>        -0.1158
     37 C27         9.4598   -4.3323    6.9336 C.ar      1 <0>        -0.1032
     38 C28         6.4061   -4.6548    1.7875 C.3       1 <0>        -0.1375
     39 C29         7.8812   -4.4510    2.0188 C.2       1 <0>         0.5097
     40 O6          8.2643   -3.8593    3.0057 O.2       1 <0>        -0.5056
     41 N5          8.7748   -4.9264    1.1288 N.am      1 <0>        -0.6183
     42 C30        10.2089   -4.7284    1.3537 C.3       1 <0>         0.0865
     43 C31         8.3121   -5.6412   -0.0633 C.3       1 <0>         0.0740
     44 H2          2.4386    5.3684    1.0532 H         1 <0>         0.0598
     45 H3          1.2390    4.4843    2.0267 H         1 <0>         0.0560
     46 H4          2.9737    4.1363    2.2211 H         1 <0>         0.0575
     47 H5          1.3232    3.6090   -0.2918 H         1 <0>         0.0763
     48 H6          3.3999    2.4193   -1.0333 H         1 <0>         0.0606
     49 H7          3.6538    4.1682   -0.8209 H         1 <0>         0.0563
     50 H8          4.2339    3.0279    0.4166 H         1 <0>         0.0599
     51 H9          2.5648    1.6915    1.7320 H         1 <0>         0.0867
     52 H10         0.8311    2.0797    1.6230 H         1 <0>         0.0707
     53 H11         2.4335    0.9899   -0.7256 H         1 <0>         0.1208
     54 H12         0.0898    0.3533   -1.4650 H         1 <0>         0.1465
     55 H13         0.4839    3.9602   -3.7812 H         1 <0>         0.0655
     56 H14         1.6171    4.6113   -2.5728 H         1 <0>         0.0653
     57 H15         2.2373    3.7421   -3.9970 H         1 <0>         0.1085
     58 H16        -0.6760    2.0481    0.7645 H         1 <0>         0.3915
     59 H17         0.6960   -0.8334    0.7287 H         1 <0>         0.4061
     60 H18         2.0543   -2.4698    2.3478 H         1 <0>         0.1227
     61 H19         1.0659   -2.9689    0.0926 H         1 <0>         0.1118
     62 H20         2.6954   -3.3825   -0.4920 H         1 <0>         0.1224
     63 H21         3.8576   -5.6009    0.5989 H         1 <0>         0.2111
     64 H22         0.3114   -7.1283    2.3726 H         1 <0>         0.2633
     65 H23         4.7753   -2.4713    1.2877 H         1 <0>         0.4190
     66 H24         6.1272   -3.3851    3.5053 H         1 <0>         0.1315
     67 H25         4.9442   -5.1443    4.8672 H         1 <0>         0.0872
     68 H26         5.1886   -6.2875    3.5249 H         1 <0>         0.0696
     69 H27         7.2208   -7.3889    3.2862 H         1 <0>         0.1099
     70 H28         9.4920   -7.8883    4.0797 H         1 <0>         0.1179
     71 H29        10.5596   -6.4944    5.7684 H         1 <0>         0.1238
     72 H30         5.8825   -3.5242    5.6814 H         1 <0>         0.1170
     73 H31         6.9541   -2.1246    7.3620 H         1 <0>         0.1199
     74 H32         9.2259   -2.6239    8.1554 H         1 <0>         0.1227
     75 H33        10.4572   -4.5400    7.2921 H         1 <0>         0.1257
     76 H34         6.2133   -5.7065    1.5758 H         1 <0>         0.0957
     77 H35         6.0839   -4.0487    0.9407 H         1 <0>         0.0951
     78 H36        10.6062   -5.5670    1.9255 H         1 <0>         0.0564
     79 H37        10.7221   -4.6673    0.3940 H         1 <0>         0.0700
     80 H38        10.3653   -3.8035    1.9088 H         1 <0>         0.0781
     81 H39         7.2232   -5.6894   -0.0583 H         1 <0>         0.0711
     82 H40         8.6483   -5.1142   -0.9563 H         1 <0>         0.0660
     83 H41         8.7206   -6.6518   -0.0624 H         1 <0>         0.0648
     84 H42        -0.0484   -4.7707    1.6312 H         1 <0>         0.4621
@<TRIPOS>BOND
     1    1    2 1
     2    1   44 1
     3    1   45 1
     4    1   46 1
     5    2    3 1
     6    2    4 1
     7    2   47 1
     8    3   48 1
     9    3   49 1
    10    3   50 1
    11    4    5 1
    12    4   51 1
    13    4   52 1
    14    5    6 1
    15    5   12 1
    16    5   53 1
    17    6    7 1
    18    6   11 1
    19    6   54 1
    20    7    8 2
    21    7    9 1
    22    9   10 1
    23   10   55 1
    24   10   56 1
    25   10   57 1
    26   11   58 1
    27   12   13 am
    28   12   59 1
    29   13   14 2
    30   13   15 1
    31   15   16 1
    32   15   23 1
    33   15   60 1
    34   16   17 1
    35   16   61 1
    36   16   62 1
    37   17   22 1
    38   17   18 2
    39   18   19 1
    40   18   63 1
    41   19   20 1
    42   19   21 1
    43   21   22 2
    44   21   64 1
    45   22   84 1
    46   23   24 am
    47   23   65 1
    48   24   25 2
    49   24   26 1
    50   26   27 1
    51   26   38 1
    52   26   66 1
    53   27   28 1
    54   27   67 1
    55   27   68 1
    56   28   33 ar
    57   28   29 ar
    58   29   30 ar
    59   29   69 1
    60   30   31 ar
    61   30   70 1
    62   31   32 ar
    63   31   71 1
    64   32   37 ar
    65   32   33 ar
    66   33   34 ar
    67   34   35 ar
    68   34   72 1
    69   35   36 ar
    70   35   73 1
    71   36   37 ar
    72   36   74 1
    73   37   75 1
    74   38   39 1
    75   38   76 1
    76   38   77 1
    77   39   40 2
    78   39   41 am
    79   41   42 1
    80   41   43 1
    81   42   78 1
    82   42   79 1
    83   42   80 1
    84   43   81 1
    85   43   82 1
    86   43   83 1
@<TRIPOS>MOLECULE
CHEMBL350425__10
   83    85     0     0     0
SMALL
USER_CHARGES

@<TRIPOS>ATOM
      1 C1         -1.1696    1.7475    1.5276 C.3       1 <0>        -0.1432
      2 C2         -0.9174    0.5343    0.6301 C.3       1 <0>        -0.1221
      3 C3          0.4146    0.7096   -0.1019 C.3       1 <0>        -0.1491
      4 C4         -0.8655   -0.7321    1.4872 C.3       1 <0>        -0.1365
      5 C5         -0.7078   -1.9549    0.5813 C.3       1 <0>         0.1196
      6 C6         -2.0032   -2.1805   -0.2010 C.3       1 <0>         0.1093
      7 C7         -2.1873   -1.0671   -1.1997 C.2       1 <0>         0.4444
      8 O1         -3.1564   -0.3487   -1.1319 O.2       1 <0>        -0.4893
      9 O2         -1.2746   -0.8734   -2.1647 O.3       1 <0>        -0.3473
     10 C8         -1.5129    0.2004   -3.0770 C.3       1 <0>         0.0304
     11 O3         -3.1093   -2.1966    0.7036 O.3       1 <0>        -0.5237
     12 N1         -0.4198   -3.1353    1.3999 N.am      1 <0>        -0.7176
     13 C9          0.8362   -3.3667    1.8303 C.2       1 <0>         0.5148
     14 O4          1.7097   -2.5526    1.6178 O.2       1 <0>        -0.5240
     15 C10         1.1552   -4.6370    2.5758 C.3       1 <0>         0.1360
     16 C11         0.8410   -5.8423    1.6873 C.3       1 <0>        -0.0466
     17 C12         0.9805   -7.1091    2.4916 C.2       1 <0>        -0.0295
     18 C13         0.0551   -7.6472    3.3087 C.2       1 <0>        -0.0012
     19 N2          0.5675   -8.7704    3.8331 N.2       1 <0>        -0.4964
     20 H1          2.8996   -7.8180    2.0392 H         1 <0>         0.4026
     21 C14         1.7751   -8.9488    3.3718 C.2       1 <0>         0.2274
     22 N3          2.0699   -7.9371    2.5273 N.pl3     1 <0>        -0.5514
     23 N4          2.5761   -4.6503    2.9323 N.am      1 <0>        -0.7226
     24 C15         2.9780   -5.2354    4.0780 C.2       1 <0>         0.5180
     25 O5          2.1755   -5.8208    4.7738 O.2       1 <0>        -0.4826
     26 C16         4.4245   -5.1624    4.4943 C.3       1 <0>        -0.0807
     27 C17         4.5756   -5.7162    5.9125 C.3       1 <0>        -0.0726
     28 C18         5.9977   -5.5308    6.3753 C.ar      1 <0>        -0.0647
     29 C19         6.9013   -6.5385    6.2302 C.ar      1 <0>        -0.1155
     30 C20         8.2204   -6.3856    6.6520 C.ar      1 <0>        -0.1131
     31 C21         8.6438   -5.2242    7.2220 C.ar      1 <0>        -0.1095
     32 C22         7.7398   -4.1616    7.3884 C.ar      1 <0>        -0.0497
     33 C23         6.3994   -4.3149    6.9536 C.ar      1 <0>        -0.0462
     34 C24         5.4967   -3.2498    7.1148 C.ar      1 <0>        -0.1069
     35 C25         5.9216   -2.0867    7.6792 C.ar      1 <0>        -0.1154
     36 C26         7.2412   -1.9336    8.1008 C.ar      1 <0>        -0.1148
     37 C27         8.1398   -2.9477    7.9730 C.ar      1 <0>        -0.1075
     38 C28         5.2752   -5.9911    3.5298 C.3       1 <0>        -0.1378
     39 C29         4.7804   -7.4145    3.5196 C.2       1 <0>         0.4901
     40 O6          3.8758   -7.7474    4.2556 O.2       1 <0>        -0.4879
     41 N5          5.3432   -8.3177    2.6925 N.am      1 <0>        -0.6274
     42 C30         4.8622   -9.7014    2.6825 C.3       1 <0>         0.0758
     43 C31         6.4360   -7.9157    1.8034 C.3       1 <0>         0.0732
     44 H2         -1.2066    2.6496    0.9170 H         1 <0>         0.0565
     45 H3         -2.1186    1.6226    2.0491 H         1 <0>         0.0553
     46 H4         -0.3634    1.8345    2.2560 H         1 <0>         0.0565
     47 H5         -1.7236    0.4472   -0.0982 H         1 <0>         0.0792
     48 H6          1.2111    0.8667    0.6255 H         1 <0>         0.0591
     49 H7          0.6282   -0.1850   -0.6870 H         1 <0>         0.0618
     50 H8          0.3536    1.5719   -0.7658 H         1 <0>         0.0528
     51 H9         -0.0179   -0.6742    2.1701 H         1 <0>         0.0866
     52 H10        -1.7884   -0.8211    2.0603 H         1 <0>         0.0704
     53 H11         0.1131   -1.7872   -0.1159 H         1 <0>         0.1155
     54 H12        -1.9493   -3.1342   -0.7260 H         1 <0>         0.1478
     55 H13        -0.7019    0.2463   -3.8039 H         1 <0>         0.1062
     56 H14        -2.4569    0.0336   -3.5959 H         1 <0>         0.0637
     57 H15        -1.5617    1.1402   -2.5271 H         1 <0>         0.0638
     58 H16        -3.2184   -1.3777    1.2062 H         1 <0>         0.3886
     59 H17        -1.1331   -3.7502    1.6320 H         1 <0>         0.4096
     60 H18         0.5526   -4.6871    3.4827 H         1 <0>         0.1237
     61 H19        -0.1790   -5.7608    1.3118 H         1 <0>         0.0970
     62 H20         1.5363   -5.8662    0.8482 H         1 <0>         0.0735
     63 H21        -0.9273   -7.2448    3.5071 H         1 <0>         0.1573
     64 H22         2.4292   -9.7711    3.6215 H         1 <0>         0.1911
     65 H23         3.2277   -4.2379    2.3438 H         1 <0>         0.4030
     66 H24         4.7569   -4.1245    4.4722 H         1 <0>         0.1002
     67 H25         3.9025   -5.1834    6.5842 H         1 <0>         0.0794
     68 H26         4.3276   -6.7776    5.9164 H         1 <0>         0.1116
     69 H27         6.5910   -7.4707    5.7816 H         1 <0>         0.1169
     70 H28         8.9173   -7.2009    6.5252 H         1 <0>         0.1215
     71 H29         9.6691   -5.1202    7.5449 H         1 <0>         0.1258
     72 H30         4.4712   -3.3537    6.7921 H         1 <0>         0.1265
     73 H31         5.2258   -1.2698    7.8019 H         1 <0>         0.1225
     74 H32         7.5526   -0.9999    8.5454 H         1 <0>         0.1229
     75 H33         9.1589   -2.8150    8.3050 H         1 <0>         0.1264
     76 H34         5.1987   -5.5726    2.5263 H         1 <0>         0.0929
     77 H35         6.3158   -5.9705    3.8536 H         1 <0>         0.1094
     78 H36         4.0605   -9.8021    1.9510 H         1 <0>         0.0514
     79 H37         5.6819  -10.3692    2.4175 H         1 <0>         0.0745
     80 H38         4.4863   -9.9625    3.6718 H         1 <0>         0.0821
     81 H39         7.3894   -8.0584    2.3120 H         1 <0>         0.0612
     82 H40         6.4116   -8.5244    0.8995 H         1 <0>         0.0749
     83 H41         6.3199   -6.8651    1.5372 H         1 <0>         0.0727
@<TRIPOS>BOND
     1    1    2 1
     2    1   44 1
     3    1   45 1
     4    1   46 1
     5    2    3 1
     6    2    4 1
     7    2   47 1
     8    3   48 1
     9    3   49 1
    10    3   50 1
    11    4    5 1
    12    4   51 1
    13    4   52 1
    14    5    6 1
    15    5   12 1
    16    5   53 1
    17    6    7 1
    18    6   11 1
    19    6   54 1
    20    7    8 2
    21    7    9 1
    22    9   10 1
    23   10   55 1
    24   10   56 1
    25   10   57 1
    26   11   58 1
    27   12   13 am
    28   12   59 1
    29   13   14 2
    30   13   15 1
    31   15   16 1
    32   15   23 1
    33   15   60 1
    34   16   61 1
    35   16   62 1
    36   16   17 1
    37   17   18 2
    38   17   22 1
    39   18   19 1
    40   18   63 1
    41   19   21 2
    42   20   22 1
    43   21   64 1
    44   21   22 1
    45   23   24 am
    46   23   65 1
    47   24   25 2
    48   24   26 1
    49   26   27 1
    50   26   38 1
    51   26   66 1
    52   27   28 1
    53   27   67 1
    54   27   68 1
    55   28   33 ar
    56   28   29 ar
    57   29   30 ar
    58   29   69 1
    59   30   31 ar
    60   30   70 1
    61   31   32 ar
    62   31   71 1
    63   32   37 ar
    64   32   33 ar
    65   33   34 ar
    66   34   35 ar
    67   34   72 1
    68   35   36 ar
    69   35   73 1
    70   36   37 ar
    71   36   74 1
    72   37   75 1
    73   38   39 1
    74   38   76 1
    75   38   77 1
    76   39   40 2
    77   39   41 am
    78   41   42 1
    79   41   43 1
    80   42   78 1
    81   42   79 1
    82   42   80 1
    83   43   81 1
    84   43   82 1
    85   43   83 1
@<TRIPOS>MOLECULE
CHEMBL350425__11
   83    85     0     0     0
SMALL
USER_CHARGES

@<TRIPOS>ATOM
      1 C1          2.2927    4.4365    3.3232 C.3       1 <0>        -0.1435
      2 C2          2.0459    3.5526    2.0989 C.3       1 <0>        -0.1187
      3 C3          3.2689    3.5999    1.1808 C.3       1 <0>        -0.1489
      4 C4          1.8030    2.1113    2.5511 C.3       1 <0>        -0.1363
      5 C5          1.4723    1.2441    1.3347 C.3       1 <0>         0.1195
      6 C6          0.0815    1.6085    0.8115 C.3       1 <0>         0.1096
      7 C7          0.1140    2.9950    0.2219 C.2       1 <0>         0.4441
      8 O1         -0.5961    3.8611    0.6753 O.2       1 <0>        -0.4911
      9 O2          0.9318    3.2678   -0.8069 O.3       1 <0>        -0.3468
     10 C8          0.9109    4.6029   -1.3160 C.3       1 <0>         0.0307
     11 O3         -0.8574    1.5706    1.8881 O.3       1 <0>        -0.5249
     12 N1          1.4937   -0.1687    1.7219 N.am      1 <0>        -0.7210
     13 C9          2.6655   -0.8309    1.7907 C.2       1 <0>         0.5092
     14 O4          3.7089   -0.2363    1.6212 O.2       1 <0>        -0.5225
     15 C10         2.6793   -2.3101    2.0783 C.3       1 <0>         0.1409
     16 C11         1.9008   -3.0489    0.9879 C.3       1 <0>        -0.0369
     17 C12         1.7251   -4.4917    1.3860 C.2       1 <0>         0.0002
     18 C13         0.5533   -5.1476    1.4875 C.2       1 <0>        -0.0567
     19 N2          0.8481   -6.4277    1.8727 N.pl3     1 <0>        -0.5743
     20 H1          0.2115   -7.1425    2.0297 H         1 <0>         0.4166
     21 C14         2.1906   -6.5094    1.9932 C.2       1 <0>         0.1951
     22 N3          2.7088   -5.3493    1.6958 N.2       1 <0>        -0.4508
     23 N4          4.0632   -2.7904    2.1007 N.am      1 <0>        -0.7070
     24 C15         4.4956   -3.5522    3.1250 C.2       1 <0>         0.5423
     25 O5          3.7101   -3.9486    3.9597 O.2       1 <0>        -0.5055
     26 C16         5.9552   -3.9114    3.2331 C.3       1 <0>        -0.0786
     27 C17         6.2300   -4.5198    4.6098 C.3       1 <0>        -0.0818
     28 C18         7.7088   -4.7657    4.7642 C.ar      1 <0>        -0.0601
     29 C19         8.2331   -5.9881    4.4743 C.ar      1 <0>        -0.1166
     30 C20         9.5977   -6.2341    4.6110 C.ar      1 <0>        -0.1118
     31 C21        10.4462   -5.2594    5.0388 C.ar      1 <0>        -0.1130
     32 C22         9.9417   -3.9850    5.3476 C.ar      1 <0>        -0.0496
     33 C23         8.5544   -3.7328    5.2025 C.ar      1 <0>        -0.0474
     34 C24         8.0508   -2.4562    5.5059 C.ar      1 <0>        -0.1042
     35 C25         8.9001   -1.4802    5.9278 C.ar      1 <0>        -0.1178
     36 C26        10.2652   -1.7262    6.0642 C.ar      1 <0>        -0.1154
     37 C27        10.7866   -2.9537    5.7926 C.ar      1 <0>        -0.1088
     38 C28         6.3123   -4.9271    2.1461 C.3       1 <0>        -0.1289
     39 C29         5.5150   -6.1886    2.3558 C.2       1 <0>         0.5240
     40 O6          4.7852   -6.2916    3.3191 O.2       1 <0>        -0.4977
     41 N5          5.6128   -7.2023    1.4730 N.am      1 <0>        -0.6232
     42 C30         4.8377   -8.4286    1.6769 C.3       1 <0>         0.0843
     43 C31         6.4943   -7.0778    0.3095 C.3       1 <0>         0.0815
     44 H2          2.4657    5.4633    3.0011 H         1 <0>         0.0562
     45 H3          1.4214    4.4028    3.9772 H         1 <0>         0.0547
     46 H4          3.1668    4.0730    3.8634 H         1 <0>         0.0569
     47 H5          1.1717    3.9161    1.5587 H         1 <0>         0.0759
     48 H6          4.1547    3.2985    1.7399 H         1 <0>         0.0595
     49 H7          3.1199    2.9202    0.3419 H         1 <0>         0.0628
     50 H8          3.4033    4.6148    0.8067 H         1 <0>         0.0523
     51 H9          2.6994    1.7274    3.0381 H         1 <0>         0.0867
     52 H10         0.9692    2.0862    3.2527 H         1 <0>         0.0686
     53 H11         2.2117    1.4178    0.5528 H         1 <0>         0.1157
     54 H12        -0.2166    0.8942    0.0440 H         1 <0>         0.1474
     55 H13         1.6160    4.6876   -2.1429 H         1 <0>         0.1061
     56 H14        -0.0926    4.8418   -1.6682 H         1 <0>         0.0631
     57 H15         1.1934    5.2977   -0.5251 H         1 <0>         0.0634
     58 H16        -0.6544    2.1824    2.6088 H         1 <0>         0.3882
     59 H17         0.6645   -0.6275    1.9287 H         1 <0>         0.4071
     60 H18         2.2143   -2.4964    3.0463 H         1 <0>         0.1219
     61 H19         0.9225   -2.5850    0.8623 H         1 <0>         0.0839
     62 H20         2.4515   -2.9956    0.0487 H         1 <0>         0.0806
     63 H21        -0.4299   -4.7417    1.3012 H         1 <0>         0.1695
     64 H22         2.7440   -7.3902    2.2837 H         1 <0>         0.1994
     65 H23         4.6683   -2.5600    1.3784 H         1 <0>         0.4003
     66 H24         6.5607   -3.0141    3.1050 H         1 <0>         0.0935
     67 H25         5.8932   -3.8316    5.3850 H         1 <0>         0.0737
     68 H26         5.6930   -5.4637    4.7036 H         1 <0>         0.1228
     69 H27         7.5815   -6.7791    4.1336 H         1 <0>         0.1177
     70 H28         9.9880   -7.2129    4.3743 H         1 <0>         0.1206
     71 H29        11.5016   -5.4648    5.1407 H         1 <0>         0.1246
     72 H30         6.9954   -2.2508    5.4042 H         1 <0>         0.1268
     73 H31         8.5104   -0.5001    6.1602 H         1 <0>         0.1215
     74 H32        10.9174   -0.9339    6.4007 H         1 <0>         0.1217
     75 H33        11.8463   -3.1299    5.9036 H         1 <0>         0.1253
     76 H34         6.0792   -4.5085    1.1670 H         1 <0>         0.0920
     77 H35         7.3765   -5.1569    2.1990 H         1 <0>         0.0982
     78 H36         3.8706   -8.3335    1.1832 H         1 <0>         0.0495
     79 H37         5.3794   -9.2751    1.2550 H         1 <0>         0.0660
     80 H38         4.6864   -8.5895    2.7443 H         1 <0>         0.0754
     81 H39         7.5193   -6.9212    0.6453 H         1 <0>         0.0589
     82 H40         6.4420   -7.9898   -0.2851 H         1 <0>         0.0740
     83 H41         6.1772   -6.2297   -0.2974 H         1 <0>         0.0594
@<TRIPOS>BOND
     1    1    2 1
     2    1   44 1
     3    1   45 1
     4    1   46 1
     5    2    3 1
     6    2    4 1
     7    2   47 1
     8    3   48 1
     9    3   49 1
    10    3   50 1
    11    4    5 1
    12    4   51 1
    13    4   52 1
    14    5    6 1
    15    5   12 1
    16    5   53 1
    17    6    7 1
    18    6   11 1
    19    6   54 1
    20    7    8 2
    21    7    9 1
    22    9   10 1
    23   10   55 1
    24   10   56 1
    25   10   57 1
    26   11   58 1
    27   12   13 am
    28   12   59 1
    29   13   14 2
    30   13   15 1
    31   15   16 1
    32   15   23 1
    33   15   60 1
    34   16   17 1
    35   16   61 1
    36   16   62 1
    37   17   22 1
    38   17   18 2
    39   18   19 1
    40   18   63 1
    41   19   20 1
    42   19   21 1
    43   21   22 2
    44   21   64 1
    45   23   24 am
    46   23   65 1
    47   24   25 2
    48   24   26 1
    49   26   27 1
    50   26   38 1
    51   26   66 1
    52   27   28 1
    53   27   67 1
    54   27   68 1
    55   28   33 ar
    56   28   29 ar
    57   29   30 ar
    58   29   69 1
    59   30   31 ar
    60   30   70 1
    61   31   32 ar
    62   31   71 1
    63   32   37 ar
    64   32   33 ar
    65   33   34 ar
    66   34   35 ar
    67   34   72 1
    68   35   36 ar
    69   35   73 1
    70   36   37 ar
    71   36   74 1
    72   37   75 1
    73   38   39 1
    74   38   76 1
    75   38   77 1
    76   39   40 2
    77   39   41 am
    78   41   42 1
    79   41   43 1
    80   42   78 1
    81   42   79 1
    82   42   80 1
    83   43   81 1
    84   43   82 1
    85   43   83 1
@<TRIPOS>MOLECULE
CHEMBL350425__12
   84    86     0     0     0
SMALL
USER_CHARGES

@<TRIPOS>ATOM
      1 C1         -0.5889    1.5164   -2.8678 C.3       1 <0>        -0.1473
      2 C2         -0.1948    0.0471   -3.0318 C.3       1 <0>        -0.0970
      3 C3          1.1568   -0.0420   -3.7432 C.3       1 <0>        -0.1547
      4 C4         -0.0902   -0.6097   -1.6540 C.3       1 <0>        -0.1178
      5 C5          0.1580   -2.1101   -1.8217 C.3       1 <0>         0.1161
      6 C6         -1.0531   -2.7548   -2.4990 C.3       1 <0>         0.1096
      7 C7         -0.8620   -4.2486   -2.5535 C.2       1 <0>         0.4296
      8 O1         -1.6025   -4.9754   -1.9344 O.2       1 <0>        -0.4951
      9 O2          0.1309   -4.7718   -3.2899 O.3       1 <0>        -0.3456
     10 C8          0.2534   -6.1955   -3.2957 C.3       1 <0>         0.0323
     11 O3         -2.2334   -2.4525   -1.7523 O.3       1 <0>        -0.5124
     12 N1          0.3645   -2.7210   -0.5063 N.am      1 <0>        -0.7261
     13 C9          1.6017   -2.7733    0.0257 C.2       1 <0>         0.5153
     14 O4          2.5289   -2.2349   -0.5413 O.2       1 <0>        -0.5035
     15 C10         1.8331   -3.5008    1.3250 C.3       1 <0>         0.1286
     16 C11         0.9843   -2.8614    2.4257 C.3       1 <0>        -0.0708
     17 C12         1.1208   -3.6626    3.6947 C.2       1 <0>         0.0421
     18 C13         0.4099   -4.7597    4.0183 C.2       1 <0>         0.0568
     19 N2          0.8504   -5.1686    5.2481 N.pl3     1 <0>        -0.4985
     20 H1          0.5291   -5.9345    5.7491 H         1 <0>         0.4666
     21 C14         1.8158   -4.3066    5.6335 C.cat     1 <0>         0.3077
     22 N3          1.9756   -3.4115    4.6973 N.pl3     1 <0>        -0.4738
     23 N4          3.2497   -3.4135    1.6880 N.am      1 <0>        -0.7175
     24 C15         3.8015   -4.3535    2.4807 C.2       1 <0>         0.5221
     25 O5          3.1252   -5.2718    2.8935 O.2       1 <0>        -0.5227
     26 C16         5.2587   -4.2637    2.8541 C.3       1 <0>        -0.0953
     27 C17         5.6284   -5.4448    3.7537 C.3       1 <0>        -0.0555
     28 C18         5.4908   -6.7295    2.9780 C.ar      1 <0>        -0.0801
     29 C19         4.4182   -7.5418    3.1844 C.ar      1 <0>        -0.0795
     30 C20         4.2740   -8.7333    2.4767 C.ar      1 <0>        -0.1265
     31 C21         5.2018   -9.1200    1.5588 C.ar      1 <0>        -0.1013
     32 C22         6.3226   -8.3075    1.3186 C.ar      1 <0>        -0.0555
     33 C23         6.4661   -7.0922    2.0340 C.ar      1 <0>        -0.0456
     34 C24         7.5844   -6.2767    1.7893 C.ar      1 <0>        -0.1219
     35 C25         8.5088   -6.6605    0.8673 C.ar      1 <0>        -0.1122
     36 C26         8.3643   -7.8523    0.1592 C.ar      1 <0>        -0.1141
     37 C27         7.3017   -8.6737    0.3790 C.ar      1 <0>        -0.1097
     38 C28         5.5137   -2.9535    3.6019 C.3       1 <0>        -0.1370
     39 C29         6.9939   -2.7846    3.8289 C.2       1 <0>         0.5129
     40 O6          7.7768   -3.5663    3.3317 O.2       1 <0>        -0.5215
     41 N5          7.4478   -1.7649    4.5843 N.am      1 <0>        -0.6178
     42 C30         8.8888   -1.5355    4.7158 C.3       1 <0>         0.0782
     43 C31         6.5002   -0.8860    5.2741 C.3       1 <0>         0.0724
     44 H2         -0.6633    1.9843   -3.8495 H         1 <0>         0.0598
     45 H3         -1.5518    1.5799   -2.3610 H         1 <0>         0.0568
     46 H4          0.1678    2.0316   -2.2762 H         1 <0>         0.0545
     47 H5         -0.9515   -0.4681   -3.6235 H         1 <0>         0.0746
     48 H6          1.4715   -1.0843   -3.7962 H         1 <0>         0.0555
     49 H7          1.0640    0.3612   -4.7516 H         1 <0>         0.0598
     50 H8          1.8980    0.5335   -3.1886 H         1 <0>         0.0577
     51 H9          0.7367   -0.1643   -1.1009 H         1 <0>         0.0764
     52 H10        -1.0195   -0.4542   -1.1059 H         1 <0>         0.0787
     53 H11         1.0439   -2.2652   -2.4375 H         1 <0>         0.1215
     54 H12        -1.1538   -2.3642   -3.5116 H         1 <0>         0.1582
     55 H13         0.4248   -6.5496   -2.2792 H         1 <0>         0.0596
     56 H14        -0.6639   -6.6376   -3.6846 H         1 <0>         0.0664
     57 H15         1.0928   -6.4854   -3.9278 H         1 <0>         0.1078
     58 H16        -2.2137   -2.7711   -0.8395 H         1 <0>         0.3774
     59 H17        -0.3892   -3.0878   -0.0182 H         1 <0>         0.3982
     60 H18         1.5512   -4.5475    1.2106 H         1 <0>         0.1280
     61 H19         1.3258   -1.8413    2.6015 H         1 <0>         0.1079
     62 H20        -0.0607   -2.8464    2.1161 H         1 <0>         0.1237
     63 H21        -0.3601   -5.2268    3.4222 H         1 <0>         0.2221
     64 H22         2.3673   -4.3527    6.5609 H         1 <0>         0.2614
     65 H23         3.7906   -2.6791    1.3578 H         1 <0>         0.4163
     66 H24         5.8677   -4.2908    1.9504 H         1 <0>         0.1217
     67 H25         6.6581   -5.3341    4.0938 H         1 <0>         0.0961
     68 H26         4.9616   -5.4676    4.6157 H         1 <0>         0.0686
     69 H27         3.6678   -7.2586    3.9077 H         1 <0>         0.1169
     70 H28         3.4134   -9.3597    2.6595 H         1 <0>         0.1172
     71 H29         5.0773  -10.0466    1.0182 H         1 <0>         0.1243
     72 H30         7.7092   -5.3501    2.3300 H         1 <0>         0.1523
     73 H31         9.3671   -6.0319    0.6813 H         1 <0>         0.1224
     74 H32         9.1124   -8.1333   -0.5674 H         1 <0>         0.1235
     75 H33         7.2033   -9.5945   -0.1766 H         1 <0>         0.1262
     76 H34         5.1393   -2.1184    3.0099 H         1 <0>         0.1029
     77 H35         4.9993   -2.9774    4.5625 H         1 <0>         0.0883
     78 H36         9.2076   -0.7967    3.9805 H         1 <0>         0.0611
     79 H37         9.1083   -1.1685    5.7184 H         1 <0>         0.0729
     80 H38         9.4225   -2.4706    4.5462 H         1 <0>         0.0853
     81 H39         5.4818   -1.2098    5.0593 H         1 <0>         0.0697
     82 H40         6.6774   -0.9326    6.3486 H         1 <0>         0.0691
     83 H41         6.6365    0.1384    4.9275 H         1 <0>         0.0698
     84 H42         2.6111   -2.6791    4.7232 H         1 <0>         0.4555
@<TRIPOS>BOND
     1    1    2 1
     2    1   44 1
     3    1   45 1
     4    1   46 1
     5    2    3 1
     6    2    4 1
     7    2   47 1
     8    3   48 1
     9    3   49 1
    10    3   50 1
    11    4    5 1
    12    4   51 1
    13    4   52 1
    14    5    6 1
    15    5   12 1
    16    5   53 1
    17    6    7 1
    18    6   11 1
    19    6   54 1
    20    7    8 2
    21    7    9 1
    22    9   10 1
    23   10   55 1
    24   10   56 1
    25   10   57 1
    26   11   58 1
    27   12   13 am
    28   12   59 1
    29   13   14 2
    30   13   15 1
    31   15   16 1
    32   15   23 1
    33   15   60 1
    34   16   17 1
    35   16   61 1
    36   16   62 1
    37   17   22 1
    38   17   18 2
    39   18   19 1
    40   18   63 1
    41   19   20 1
    42   19   21 1
    43   21   22 2
    44   21   64 1
    45   22   84 1
    46   23   24 am
    47   23   65 1
    48   24   25 2
    49   24   26 1
    50   26   27 1
    51   26   38 1
    52   26   66 1
    53   27   28 1
    54   27   67 1
    55   27   68 1
    56   28   33 ar
    57   28   29 ar
    58   29   30 ar
    59   29   69 1
    60   30   31 ar
    61   30   70 1
    62   31   32 ar
    63   31   71 1
    64   32   37 ar
    65   32   33 ar
    66   33   34 ar
    67   34   35 ar
    68   34   72 1
    69   35   36 ar
    70   35   73 1
    71   36   37 ar
    72   36   74 1
    73   37   75 1
    74   38   39 1
    75   38   76 1
    76   38   77 1
    77   39   40 2
    78   39   41 am
    79   41   42 1
    80   41   43 1
    81   42   78 1
    82   42   79 1
    83   42   80 1
    84   43   81 1
    85   43   82 1
    86   43   83 1
@<TRIPOS>MOLECULE
CHEMBL350425__13
   83    85     0     0     0
SMALL
USER_CHARGES

@<TRIPOS>ATOM
      1 C1         -0.6436    1.4215   -2.9062 C.3       1 <0>        -0.1464
      2 C2         -0.2377   -0.0458   -3.0592 C.3       1 <0>        -0.0961
      3 C3          1.1139   -0.1294   -3.7714 C.3       1 <0>        -0.1538
      4 C4         -0.1264   -0.6910   -1.6764 C.3       1 <0>        -0.1190
      5 C5          0.1340   -2.1906   -1.8328 C.3       1 <0>         0.1171
      6 C6         -1.0723   -2.8504   -2.5039 C.3       1 <0>         0.1108
      7 C7         -0.8690   -4.3430   -2.5471 C.2       1 <0>         0.4300
      8 O1         -1.6029   -5.0710   -1.9217 O.2       1 <0>        -0.4948
      9 O2          0.1275   -4.8637   -3.2804 O.3       1 <0>        -0.3462
     10 C8          0.2617   -6.2863   -3.2753 C.3       1 <0>         0.0324
     11 O3         -2.2543   -2.5520   -1.7584 O.3       1 <0>        -0.5162
     12 N1          0.3467   -2.7895   -0.5129 N.am      1 <0>        -0.7307
     13 C9          1.5848   -2.8276    0.0182 C.2       1 <0>         0.5182
     14 O4          2.5070   -2.2861   -0.5538 O.2       1 <0>        -0.5138
     15 C10         1.8234   -3.5431    1.3229 C.3       1 <0>         0.1375
     16 C11         0.9703   -2.9022    2.4194 C.3       1 <0>        -0.0504
     17 C12         1.1145   -3.6924    3.6945 C.2       1 <0>        -0.0153
     18 C13         2.0844   -3.5551    4.6187 C.2       1 <0>        -0.0034
     19 N2          1.8528   -4.4419    5.5980 N.2       1 <0>        -0.4839
     20 H1         -0.5138   -5.0110    3.6904 H         1 <0>         0.4148
     21 C14         0.7763   -5.1235    5.3158 C.2       1 <0>         0.1927
     22 N3          0.2816   -4.6837    4.1387 N.pl3     1 <0>        -0.5592
     23 N4          3.2396   -3.4414    1.6838 N.am      1 <0>        -0.7180
     24 C15         3.7997   -4.3708    2.4832 C.2       1 <0>         0.5245
     25 O5          3.1313   -5.2913    2.9038 O.2       1 <0>        -0.4993
     26 C16         5.2565   -4.2662    2.8545 C.3       1 <0>        -0.0837
     27 C17         5.6366   -5.4372    3.7629 C.3       1 <0>        -0.0609
     28 C18         5.5089   -6.7289    2.9973 C.ar      1 <0>        -0.0693
     29 C19         4.4428   -7.5480    3.2104 C.ar      1 <0>        -0.0779
     30 C20         4.3077   -8.7461    2.5121 C.ar      1 <0>        -0.1181
     31 C21         5.2382   -9.1326    1.5968 C.ar      1 <0>        -0.1147
     32 C22         6.3524   -8.3132    1.3497 C.ar      1 <0>        -0.0564
     33 C23         6.4866   -7.0913    2.0556 C.ar      1 <0>        -0.0465
     34 C24         7.5983   -6.2689    1.8041 C.ar      1 <0>        -0.1128
     35 C25         8.5254   -6.6526    0.8847 C.ar      1 <0>        -0.1227
     36 C26         8.3900   -7.8510    0.1859 C.ar      1 <0>        -0.1188
     37 C27         7.3340   -8.6790    0.4126 C.ar      1 <0>        -0.1132
     38 C28         5.5015   -2.9482    3.5919 C.3       1 <0>        -0.1373
     39 C29         6.9805   -2.7650    3.8152 C.2       1 <0>         0.5180
     40 O6          7.7694   -3.5414    3.3196 O.2       1 <0>        -0.5312
     41 N5          7.4266   -1.7383    4.5658 N.am      1 <0>        -0.6207
     42 C30         8.8657   -1.4955    4.6937 C.3       1 <0>         0.0811
     43 C31         6.4724   -0.8651    5.2537 C.3       1 <0>         0.0739
     44 H2         -0.7229    1.8811   -3.8913 H         1 <0>         0.0571
     45 H3         -1.6065    1.4810   -2.3989 H         1 <0>         0.0560
     46 H4          0.1095    1.9475   -2.3194 H         1 <0>         0.0549
     47 H5         -0.9907   -0.5718   -3.6461 H         1 <0>         0.0727
     48 H6          1.8509    0.4565   -3.2221 H         1 <0>         0.0581
     49 H7          1.4370   -1.1694   -3.8166 H         1 <0>         0.0564
     50 H8          1.0167    0.2652   -4.7828 H         1 <0>         0.0568
     51 H9          0.6974   -0.2345   -1.1277 H         1 <0>         0.0779
     52 H10        -1.0563   -0.5389   -1.1286 H         1 <0>         0.0777
     53 H11         1.0207   -2.3431   -2.4482 H         1 <0>         0.1188
     54 H12        -1.1771   -2.4684   -3.5194 H         1 <0>         0.1554
     55 H13         1.1029   -6.5742   -3.9060 H         1 <0>         0.1065
     56 H14         0.4370   -6.6311   -2.2563 H         1 <0>         0.0611
     57 H15        -0.6523   -6.7389   -3.6599 H         1 <0>         0.0640
     58 H16        -2.2312   -2.8634   -0.8433 H         1 <0>         0.3802
     59 H17        -0.4035   -3.1587   -0.0213 H         1 <0>         0.3977
     60 H18         1.5499   -4.5929    1.2169 H         1 <0>         0.1133
     61 H19         1.3037   -1.8780    2.5871 H         1 <0>         0.0967
     62 H20        -0.0751   -2.8981    2.1108 H         1 <0>         0.0801
     63 H21         2.9048   -2.8539    4.5784 H         1 <0>         0.1528
     64 H22         0.3498   -5.9070    5.9245 H         1 <0>         0.2014
     65 H23         3.7741   -2.7052    1.3475 H         1 <0>         0.4076
     66 H24         5.8648   -4.2953    1.9505 H         1 <0>         0.1082
     67 H25         6.6657   -5.3155    4.1010 H         1 <0>         0.0888
     68 H26         4.9708   -5.4588    4.6256 H         1 <0>         0.0826
     69 H27         3.6905   -7.2651    3.9319 H         1 <0>         0.1277
     70 H28         3.4521   -9.3779    2.7002 H         1 <0>         0.1158
     71 H29         5.1207  -10.0644    1.0635 H         1 <0>         0.1201
     72 H30         7.7160   -5.3372    2.3374 H         1 <0>         0.1542
     73 H31         9.3787   -6.0188    0.6933 H         1 <0>         0.1187
     74 H32         9.1400   -8.1317   -0.5388 H         1 <0>         0.1183
     75 H33         7.2426   -9.6049   -0.1358 H         1 <0>         0.1216
     76 H34         5.1191   -2.1209    2.9941 H         1 <0>         0.0997
     77 H35         4.9887   -2.9692    4.5535 H         1 <0>         0.1039
     78 H36         9.1766   -0.7567    3.9550 H         1 <0>         0.0560
     79 H37         9.0837   -1.1226    5.6945 H         1 <0>         0.0687
     80 H38         9.4075   -2.4264    4.5268 H         1 <0>         0.0822
     81 H39         6.2664   -1.2633    6.2472 H         1 <0>         0.0618
     82 H40         6.8953    0.1355    5.3439 H         1 <0>         0.0748
     83 H41         5.5457   -0.8177    4.6819 H         1 <0>         0.0733
@<TRIPOS>BOND
     1    1    2 1
     2    1   44 1
     3    1   45 1
     4    1   46 1
     5    2    3 1
     6    2    4 1
     7    2   47 1
     8    3   48 1
     9    3   49 1
    10    3   50 1
    11    4    5 1
    12    4   51 1
    13    4   52 1
    14    5    6 1
    15    5   12 1
    16    5   53 1
    17    6    7 1
    18    6   11 1
    19    6   54 1
    20    7    8 2
    21    7    9 1
    22    9   10 1
    23   10   55 1
    24   10   56 1
    25   10   57 1
    26   11   58 1
    27   12   13 am
    28   12   59 1
    29   13   14 2
    30   13   15 1
    31   15   16 1
    32   15   23 1
    33   15   60 1
    34   16   61 1
    35   16   62 1
    36   16   17 1
    37   17   18 2
    38   17   22 1
    39   18   19 1
    40   18   63 1
    41   19   21 2
    42   20   22 1
    43   21   64 1
    44   21   22 1
    45   23   24 am
    46   23   65 1
    47   24   25 2
    48   24   26 1
    49   26   27 1
    50   26   38 1
    51   26   66 1
    52   27   28 1
    53   27   67 1
    54   27   68 1
    55   28   33 ar
    56   28   29 ar
    57   29   30 ar
    58   29   69 1
    59   30   31 ar
    60   30   70 1
    61   31   32 ar
    62   31   71 1
    63   32   37 ar
    64   32   33 ar
    65   33   34 ar
    66   34   35 ar
    67   34   72 1
    68   35   36 ar
    69   35   73 1
    70   36   37 ar
    71   36   74 1
    72   37   75 1
    73   38   39 1
    74   38   76 1
    75   38   77 1
    76   39   40 2
    77   39   41 am
    78   41   42 1
    79   41   43 1
    80   42   78 1
    81   42   79 1
    82   42   80 1
    83   43   81 1
    84   43   82 1
    85   43   83 1
@<TRIPOS>MOLECULE
CHEMBL350425__14
   83    85     0     0     0
SMALL
USER_CHARGES

@<TRIPOS>ATOM
      1 C1         -0.5394    1.5869   -2.8699 C.3       1 <0>        -0.1460
      2 C2         -0.1595    0.1142   -3.0357 C.3       1 <0>        -0.0962
      3 C3          1.1906    0.0129   -3.7484 C.3       1 <0>        -0.1534
      4 C4         -0.0600   -0.5450   -1.6586 C.3       1 <0>        -0.1188
      5 C5          0.1738   -2.0475   -1.8281 C.3       1 <0>         0.1173
      6 C6         -1.0441   -2.6800   -2.5047 C.3       1 <0>         0.1113
      7 C7         -0.8673   -4.1755   -2.5609 C.2       1 <0>         0.4292
      8 O1         -1.6141   -4.8958   -1.9418 O.2       1 <0>        -0.4916
      9 O2          0.1198   -4.7074   -3.2988 O.3       1 <0>        -0.3475
     10 C8          0.2288   -6.1322   -3.3062 C.3       1 <0>         0.0323
     11 O3         -2.2207   -2.3672   -1.7565 O.3       1 <0>        -0.5177
     12 N1          0.3757   -2.6617   -0.5134 N.am      1 <0>        -0.7302
     13 C9          1.6129   -2.7263    0.0173 C.2       1 <0>         0.5183
     14 O4          2.5446   -2.1961   -0.5501 O.2       1 <0>        -0.5218
     15 C10         1.8387   -3.4572    1.3156 C.3       1 <0>         0.1404
     16 C11         0.9970   -2.8109    2.4178 C.3       1 <0>        -0.0387
     17 C12         1.1271   -3.6147    3.6859 C.2       1 <0>         0.0125
     18 C13         1.5068   -3.1406    4.8878 C.2       1 <0>        -0.0598
     19 N2          1.4892   -4.1997    5.7548 N.pl3     1 <0>        -0.5715
     20 H1          1.7148   -4.1754    6.6979 H         1 <0>         0.4160
     21 C14         1.0991   -5.2849    5.0520 C.2       1 <0>         0.1949
     22 N3          0.8795   -4.9264    3.8165 N.2       1 <0>        -0.4485
     23 N4          3.2564   -3.3837    1.6773 N.am      1 <0>        -0.7166
     24 C15         3.8000   -4.3298    2.4685 C.2       1 <0>         0.5152
     25 O5          3.1154   -5.2419    2.8811 O.2       1 <0>        -0.4865
     26 C16         5.2584   -4.2541    2.8406 C.3       1 <0>        -0.0869
     27 C17         5.6177   -5.4395    3.7387 C.3       1 <0>        -0.0562
     28 C18         5.4671   -6.7221    2.9619 C.ar      1 <0>        -0.0731
     29 C19         4.3871   -7.5245    3.1688 C.ar      1 <0>        -0.0740
     30 C20         4.2308   -8.7139    2.4601 C.ar      1 <0>        -0.1159
     31 C21         5.1539   -9.1083    1.5406 C.ar      1 <0>        -0.1138
     32 C22         6.2819   -8.3062    1.2998 C.ar      1 <0>        -0.0562
     33 C23         6.4378   -7.0931    2.0163 C.ar      1 <0>        -0.0459
     34 C24         7.5633   -6.2878    1.7710 C.ar      1 <0>        -0.1139
     35 C25         8.4830   -6.6794    0.8475 C.ar      1 <0>        -0.1225
     36 C26         8.3264   -7.8690    0.1383 C.ar      1 <0>        -0.1194
     37 C27         7.2564   -8.6806    0.3587 C.ar      1 <0>        -0.1123
     38 C28         5.5266   -2.9472    3.5895 C.3       1 <0>        -0.1305
     39 C29         7.0085   -2.7928    3.8157 C.2       1 <0>         0.5162
     40 O6          7.7836   -3.5793    3.3143 O.2       1 <0>        -0.5296
     41 N5          7.4724   -1.7807    4.5752 N.am      1 <0>        -0.6219
     42 C30         8.9155   -1.5642    4.7050 C.3       1 <0>         0.0806
     43 C31         6.5336   -0.8971    5.2710 C.3       1 <0>         0.0776
     44 H2         -0.6104    2.0565   -3.8510 H         1 <0>         0.0564
     45 H3         -1.5013    1.6591   -2.3622 H         1 <0>         0.0560
     46 H4          0.2226    2.0944   -2.2784 H         1 <0>         0.0543
     47 H5         -0.9216   -0.3933   -3.6272 H         1 <0>         0.0728
     48 H6          1.9377    0.5807   -3.1939 H         1 <0>         0.0575
     49 H7          1.4952   -1.0323   -3.8027 H         1 <0>         0.0568
     50 H8          1.1007    0.4180   -4.7563 H         1 <0>         0.0560
     51 H9          0.7717   -0.1080   -1.1058 H         1 <0>         0.0770
     52 H10        -0.9872   -0.3812   -1.1095 H         1 <0>         0.0777
     53 H11         1.0576   -2.2105   -2.4449 H         1 <0>         0.1174
     54 H12        -1.1420   -2.2874   -3.5169 H         1 <0>         0.1538
     55 H13         1.0647   -6.4294   -3.9394 H         1 <0>         0.1051
     56 H14         0.3978   -6.4889   -2.2902 H         1 <0>         0.0626
     57 H15        -0.6931   -6.5651   -3.6946 H         1 <0>         0.0632
     58 H16        -2.2031   -2.6869   -0.8441 H         1 <0>         0.3821
     59 H17        -0.3809   -3.0218   -0.0249 H         1 <0>         0.4004
     60 H18         1.5467   -4.5011    1.2005 H         1 <0>         0.1233
     61 H19         1.3484   -1.7943    2.5943 H         1 <0>         0.0806
     62 H20        -0.0481   -2.7856    2.1093 H         1 <0>         0.0825
     63 H21         1.7742   -2.1209    5.1225 H         1 <0>         0.1654
     64 H22         0.9840   -6.2831    5.4477 H         1 <0>         0.1984
     65 H23         3.8039   -2.6541    1.3474 H         1 <0>         0.4036
     66 H24         5.8662   -4.2861    1.9363 H         1 <0>         0.1075
     67 H25         6.6487   -5.3390    4.0778 H         1 <0>         0.0872
     68 H26         4.9516   -5.4568    4.6013 H         1 <0>         0.0725
     69 H27         3.6404   -7.2350    3.8933 H         1 <0>         0.1270
     70 H28         3.3646   -9.3323    2.6434 H         1 <0>         0.1178
     71 H29         5.0199  -10.0332    0.9993 H         1 <0>         0.1206
     72 H30         7.6975   -5.3630    2.3125 H         1 <0>         0.1530
     73 H31         9.3470   -6.0588    0.6610 H         1 <0>         0.1182
     74 H32         9.0709   -8.1564   -0.5894 H         1 <0>         0.1183
     75 H33         7.1487   -9.5999   -0.1977 H         1 <0>         0.1219
     76 H34         5.1599   -2.1079    2.9984 H         1 <0>         0.0997
     77 H35         5.0124   -2.9670    4.5504 H         1 <0>         0.0967
     78 H36         9.2391   -0.8242    3.9731 H         1 <0>         0.0564
     79 H37         9.1400   -1.2044    5.7091 H         1 <0>         0.0684
     80 H38         9.4410   -2.5029    4.5295 H         1 <0>         0.0822
     81 H39         5.9236   -1.4837    5.9580 H         1 <0>         0.0613
     82 H40         7.0894   -0.1447    5.8305 H         1 <0>         0.0803
     83 H41         5.8892   -0.4055    4.5422 H         1 <0>         0.0636
@<TRIPOS>BOND
     1    1    2 1
     2    1   44 1
     3    1   45 1
     4    1   46 1
     5    2    3 1
     6    2    4 1
     7    2   47 1
     8    3   48 1
     9    3   49 1
    10    3   50 1
    11    4    5 1
    12    4   51 1
    13    4   52 1
    14    5    6 1
    15    5   12 1
    16    5   53 1
    17    6    7 1
    18    6   11 1
    19    6   54 1
    20    7    8 2
    21    7    9 1
    22    9   10 1
    23   10   55 1
    24   10   56 1
    25   10   57 1
    26   11   58 1
    27   12   13 am
    28   12   59 1
    29   13   14 2
    30   13   15 1
    31   15   16 1
    32   15   23 1
    33   15   60 1
    34   16   17 1
    35   16   61 1
    36   16   62 1
    37   17   22 1
    38   17   18 2
    39   18   19 1
    40   18   63 1
    41   19   20 1
    42   19   21 1
    43   21   22 2
    44   21   64 1
    45   23   24 am
    46   23   65 1
    47   24   25 2
    48   24   26 1
    49   26   27 1
    50   26   38 1
    51   26   66 1
    52   27   28 1
    53   27   67 1
    54   27   68 1
    55   28   33 ar
    56   28   29 ar
    57   29   30 ar
    58   29   69 1
    59   30   31 ar
    60   30   70 1
    61   31   32 ar
    62   31   71 1
    63   32   37 ar
    64   32   33 ar
    65   33   34 ar
    66   34   35 ar
    67   34   72 1
    68   35   36 ar
    69   35   73 1
    70   36   37 ar
    71   36   74 1
    72   37   75 1
    73   38   39 1
    74   38   76 1
    75   38   77 1
    76   39   40 2
    77   39   41 am
    78   41   42 1
    79   41   43 1
    80   42   78 1
    81   42   79 1
    82   42   80 1
    83   43   81 1
    84   43   82 1
    85   43   83 1
@<TRIPOS>MOLECULE
CHEMBL350425__15
   84    86     0     0     0
SMALL
USER_CHARGES

@<TRIPOS>ATOM
      1 C1         -2.1520    1.8502   -0.9564 C.3       1 <0>        -0.1473
      2 C2         -1.8849    0.3739   -1.2567 C.3       1 <0>        -0.0972
      3 C3         -0.8569    0.2606   -2.3842 C.3       1 <0>        -0.1545
      4 C4         -1.3425   -0.3119   -0.0011 C.3       1 <0>        -0.1177
      5 C5         -1.2234   -1.8163   -0.2528 C.3       1 <0>         0.1167
      6 C6         -2.6119   -2.3999   -0.5217 C.3       1 <0>         0.1095
      7 C7         -2.5112   -3.8983   -0.6479 C.2       1 <0>         0.4295
      8 O1         -3.0506   -4.6106    0.1655 O.2       1 <0>        -0.4946
      9 O2         -1.8224   -4.4414   -1.6638 O.3       1 <0>        -0.3461
     10 C8         -1.7685   -5.8682   -1.7216 C.3       1 <0>         0.0324
     11 O3         -3.4847   -2.0707    0.5609 O.3       1 <0>        -0.5127
     12 N1         -0.6412   -2.4639    0.9252 N.am      1 <0>        -0.7268
     13 C9          0.6964   -2.5902    1.0328 C.2       1 <0>         0.5178
     14 O4          1.4217   -2.0883    0.2004 O.2       1 <0>        -0.5063
     15 C10         1.2906   -3.3552    2.1873 C.3       1 <0>         0.1300
     16 C11         0.8745   -2.6961    3.5038 C.3       1 <0>        -0.0713
     17 C12         1.3652   -3.5292    4.6597 C.2       1 <0>         0.0388
     18 C13         0.7359   -4.5950    5.1905 C.2       1 <0>         0.0566
     19 N2          1.5232   -5.0511    6.2131 N.pl3     1 <0>        -0.4985
     20 H1          1.3374   -5.8097    6.7882 H         1 <0>         0.4669
     21 C14         2.6070   -4.2475    6.2717 C.cat     1 <0>         0.3055
     22 N3          2.5081   -3.3427    5.3365 N.pl3     1 <0>        -0.4732
     23 N4          2.7515   -3.3477    2.0777 N.am      1 <0>        -0.7222
     24 C15         3.4751   -4.3308    2.6490 C.2       1 <0>         0.5302
     25 O5          2.9147   -5.2709    3.1715 O.2       1 <0>        -0.5164
     26 C16         4.9805   -4.2619    2.6384 C.3       1 <0>        -0.0851
     27 C17         5.5538   -5.5384    3.2570 C.3       1 <0>        -0.0623
     28 C18         7.0525   -5.4179    3.3590 C.ar      1 <0>        -0.0823
     29 C19         7.8478   -5.9204    2.3751 C.ar      1 <0>        -0.1048
     30 C20         9.2353   -5.8185    2.4520 C.ar      1 <0>        -0.1125
     31 C21         9.8358   -5.2138    3.5135 C.ar      1 <0>        -0.1001
     32 C22         9.0478   -4.6831    4.5485 C.ar      1 <0>        -0.0504
     33 C23         7.6360   -4.7813    4.4673 C.ar      1 <0>        -0.0424
     34 C24         6.8476   -4.2451    5.4999 C.ar      1 <0>        -0.1214
     35 C25         7.4479   -3.6354    6.5581 C.ar      1 <0>        -0.1100
     36 C26         8.8358   -3.5331    6.6349 C.ar      1 <0>        -0.1207
     37 C27         9.6317   -4.0522    5.6605 C.ar      1 <0>        -0.0934
     38 C28         5.4747   -4.1272    1.1967 C.3       1 <0>        -0.1457
     39 C29         4.9401   -5.2707    0.3735 C.2       1 <0>         0.5073
     40 O6          4.1629   -6.0609    0.8659 O.2       1 <0>        -0.5238
     41 N5          5.3255   -5.4152   -0.9098 N.am      1 <0>        -0.6158
     42 C30         4.8057   -6.5268   -1.7101 C.3       1 <0>         0.0833
     43 C31         6.2643   -4.4606   -1.5046 C.3       1 <0>         0.0690
     44 H2         -2.5385    2.3388   -1.8509 H         1 <0>         0.0596
     45 H3         -2.8844    1.9309   -0.1532 H         1 <0>         0.0568
     46 H4         -1.2234    2.3327   -0.6513 H         1 <0>         0.0545
     47 H5         -2.8135   -0.1086   -1.5618 H         1 <0>         0.0749
     48 H6         -0.6069   -0.7882   -2.5439 H         1 <0>         0.0551
     49 H7         -1.2749    0.6781   -3.3002 H         1 <0>         0.0597
     50 H8          0.0434    0.8113   -2.1117 H         1 <0>         0.0576
     51 H9         -0.3604    0.0951    0.2396 H         1 <0>         0.0764
     52 H10        -2.0230   -0.1356    0.8319 H         1 <0>         0.0784
     53 H11        -0.5825   -1.9905   -1.1172 H         1 <0>         0.1208
     54 H12        -3.0082   -1.9831   -1.4476 H         1 <0>         0.1580
     55 H13        -1.3023   -6.2513   -0.8138 H         1 <0>         0.0601
     56 H14        -2.7794   -6.2669   -1.8069 H         1 <0>         0.0663
     57 H15        -1.1826   -6.1749   -2.5881 H         1 <0>         0.1071
     58 H16        -3.1936   -2.4103    1.4181 H         1 <0>         0.3777
     59 H17        -1.2183   -2.8019    1.6278 H         1 <0>         0.3983
     60 H18         0.9299   -4.3835    2.1658 H         1 <0>         0.1275
     61 H19         1.3098   -1.6986    3.5643 H         1 <0>         0.1083
     62 H20        -0.2122   -2.6214    3.5453 H         1 <0>         0.1233
     63 H21        -0.2086   -5.0099    4.8709 H         1 <0>         0.2231
     64 H22         3.4225   -4.3408    6.9736 H         1 <0>         0.2614
     65 H23         3.1979   -2.6352    1.5941 H         1 <0>         0.4127
     66 H24         5.3087   -3.3985    3.2172 H         1 <0>         0.1036
     67 H25         5.1322   -5.6810    4.2520 H         1 <0>         0.0765
     68 H26         5.2998   -6.3923    2.6290 H         1 <0>         0.1011
     69 H27         7.3966   -6.4057    1.5223 H         1 <0>         0.1187
     70 H28         9.8434   -6.2256    1.6577 H         1 <0>         0.1269
     71 H29        10.9125   -5.1427    3.5600 H         1 <0>         0.1310
     72 H30         5.7709   -4.3164    5.4537 H         1 <0>         0.1127
     73 H31         6.8397   -3.2243    7.3503 H         1 <0>         0.1209
     74 H32         9.2869   -3.0439    7.4855 H         1 <0>         0.1262
     75 H33        10.7057   -3.9662    5.7337 H         1 <0>         0.1308
     76 H34         5.1239   -3.1836    0.7790 H         1 <0>         0.1005
     77 H35         6.5645   -4.1479    1.1828 H         1 <0>         0.1127
     78 H36         3.8889   -6.2162   -2.2112 H         1 <0>         0.0563
     79 H37         5.5470   -6.8159   -2.4551 H         1 <0>         0.0739
     80 H38         4.5945   -7.3753   -1.0593 H         1 <0>         0.0778
     81 H39         6.5379   -3.7101   -0.7630 H         1 <0>         0.0785
     82 H40         7.1590   -4.9885   -1.8345 H         1 <0>         0.0689
     83 H41         5.7944   -3.9730   -2.3587 H         1 <0>         0.0686
     84 H42         3.1577   -2.6443    5.1600 H         1 <0>         0.4587
@<TRIPOS>BOND
     1    1    2 1
     2    1   44 1
     3    1   45 1
     4    1   46 1
     5    2    3 1
     6    2    4 1
     7    2   47 1
     8    3   48 1
     9    3   49 1
    10    3   50 1
    11    4    5 1
    12    4   51 1
    13    4   52 1
    14    5    6 1
    15    5   12 1
    16    5   53 1
    17    6    7 1
    18    6   11 1
    19    6   54 1
    20    7    8 2
    21    7    9 1
    22    9   10 1
    23   10   55 1
    24   10   56 1
    25   10   57 1
    26   11   58 1
    27   12   13 am
    28   12   59 1
    29   13   14 2
    30   13   15 1
    31   15   16 1
    32   15   23 1
    33   15   60 1
    34   16   17 1
    35   16   61 1
    36   16   62 1
    37   17   22 1
    38   17   18 2
    39   18   19 1
    40   18   63 1
    41   19   20 1
    42   19   21 1
    43   21   22 2
    44   21   64 1
    45   22   84 1
    46   23   24 am
    47   23   65 1
    48   24   25 2
    49   24   26 1
    50   26   27 1
    51   26   38 1
    52   26   66 1
    53   27   28 1
    54   27   67 1
    55   27   68 1
    56   28   33 ar
    57   28   29 ar
    58   29   30 ar
    59   29   69 1
    60   30   31 ar
    61   30   70 1
    62   31   32 ar
    63   31   71 1
    64   32   37 ar
    65   32   33 ar
    66   33   34 ar
    67   34   35 ar
    68   34   72 1
    69   35   36 ar
    70   35   73 1
    71   36   37 ar
    72   36   74 1
    73   37   75 1
    74   38   39 1
    75   38   76 1
    76   38   77 1
    77   39   40 2
    78   39   41 am
    79   41   42 1
    80   41   43 1
    81   42   78 1
    82   42   79 1
    83   42   80 1
    84   43   81 1
    85   43   82 1
    86   43   83 1
@<TRIPOS>MOLECULE
CHEMBL350425__16
   83    85     0     0     0
SMALL
USER_CHARGES

@<TRIPOS>ATOM
      1 C1         -2.1492    2.4822   -0.8177 C.3       1 <0>        -0.1460
      2 C2         -1.9592    1.0028   -1.1587 C.3       1 <0>        -0.0959
      3 C3         -0.9072    0.8645   -2.2609 C.3       1 <0>        -0.1529
      4 C4         -1.4940    0.2478    0.0881 C.3       1 <0>        -0.1194
      5 C5         -1.4165   -1.2486   -0.2211 C.3       1 <0>         0.1176
      6 C6         -2.8221   -1.7857   -0.4981 C.3       1 <0>         0.1117
      7 C7         -2.7617   -3.2802   -0.6816 C.2       1 <0>         0.4289
      8 O1         -3.3123   -4.0087    0.1097 O.2       1 <0>        -0.4910
      9 O2         -2.0962   -3.8021   -1.7239 O.3       1 <0>        -0.3479
     10 C8         -2.0801   -5.2266   -1.8358 C.3       1 <0>         0.0323
     11 O3         -3.6764   -1.4752    0.6045 O.3       1 <0>        -0.5180
     12 N1         -0.8410   -1.9551    0.9260 N.am      1 <0>        -0.7308
     13 C9          0.4959   -2.0866    1.0349 C.2       1 <0>         0.5207
     14 O4          1.2259   -1.5451    0.2320 O.2       1 <0>        -0.5243
     15 C10         1.0836   -2.9066    2.1544 C.3       1 <0>         0.1417
     16 C11         0.6600   -2.3118    3.4989 C.3       1 <0>        -0.0394
     17 C12         1.1442   -3.1999    4.6160 C.2       1 <0>         0.0088
     18 C13         1.9025   -2.8156    5.6605 C.2       1 <0>        -0.0590
     19 N2          2.1093   -3.9283    6.4304 N.pl3     1 <0>        -0.5717
     20 H1          2.6199   -3.9715    7.2540 H         1 <0>         0.4162
     21 C14         1.4698   -4.9545    5.8292 C.2       1 <0>         0.1953
     22 N3          0.8907   -4.5104    4.7474 N.2       1 <0>        -0.4511
     23 N4          2.5451   -2.8940    2.0537 N.am      1 <0>        -0.7211
     24 C15         3.2656   -3.9036    2.5809 C.2       1 <0>         0.5266
     25 O5          2.7024   -4.8667    3.0565 O.2       1 <0>        -0.4823
     26 C16         4.7711   -3.8359    2.5794 C.3       1 <0>        -0.0805
     27 C17         5.3397   -5.1131    3.2009 C.3       1 <0>        -0.0656
     28 C18         6.8379   -4.9939    3.3119 C.ar      1 <0>        -0.0649
     29 C19         7.6387   -5.4966    2.3326 C.ar      1 <0>        -0.1161
     30 C20         9.0257   -5.3958    2.4179 C.ar      1 <0>        -0.1109
     31 C21         9.6204   -4.7921    3.4832 C.ar      1 <0>        -0.1105
     32 C22         8.8265   -4.2612    4.5138 C.ar      1 <0>        -0.0491
     33 C23         7.4152   -4.3582    4.4240 C.ar      1 <0>        -0.0457
     34 C24         6.6210   -3.8219    5.4521 C.ar      1 <0>        -0.1052
     35 C25         7.2154   -3.2132    6.5142 C.ar      1 <0>        -0.1171
     36 C26         8.6030   -3.1120    6.5993 C.ar      1 <0>        -0.1161
     37 C27         9.4042   -3.6313    5.6295 C.ar      1 <0>        -0.1061
     38 C28         5.2742   -3.7010    1.1408 C.3       1 <0>        -0.1391
     39 C29         4.7693   -4.8606    0.3213 C.2       1 <0>         0.5069
     40 O6          3.9949   -5.6563    0.8092 O.2       1 <0>        -0.5110
     41 N5          5.1782   -5.0133   -0.9538 N.am      1 <0>        -0.6230
     42 C30         4.6874   -6.1405   -1.7505 C.3       1 <0>         0.0854
     43 C31         6.1135   -4.0520   -1.5432 C.3       1 <0>         0.0771
     44 H2         -2.4807    3.0201   -1.7060 H         1 <0>         0.0562
     45 H3         -2.8988    2.5808   -0.0325 H         1 <0>         0.0560
     46 H4         -1.2036    2.8997   -0.4719 H         1 <0>         0.0545
     47 H5         -2.9049    0.5853   -1.5045 H         1 <0>         0.0725
     48 H6          0.0202    1.3388   -1.9396 H         1 <0>         0.0575
     49 H7         -0.7253   -0.1918   -2.4591 H         1 <0>         0.0564
     50 H8         -1.2668    1.3479   -3.1692 H         1 <0>         0.0557
     51 H9         -0.5094    0.6089    0.3853 H         1 <0>         0.0773
     52 H10        -2.2024    0.4149    0.8995 H         1 <0>         0.0780
     53 H11        -0.7880   -1.4064   -1.0976 H         1 <0>         0.1165
     54 H12        -3.2155   -1.3240   -1.4038 H         1 <0>         0.1535
     55 H13        -1.5101   -5.5153   -2.7190 H         1 <0>         0.1045
     56 H14        -1.6161   -5.6556   -0.9477 H         1 <0>         0.0632
     57 H15        -3.1018   -5.5956   -1.9262 H         1 <0>         0.0632
     58 H16        -3.3867   -1.8544    1.4455 H         1 <0>         0.3826
     59 H17        -1.4221   -2.3283    1.6071 H         1 <0>         0.4003
     60 H18         0.7232   -3.9326    2.0813 H         1 <0>         0.1233
     61 H19         1.0947   -1.3185    3.6100 H         1 <0>         0.0809
     62 H20        -0.4269   -2.2391    3.5377 H         1 <0>         0.0823
     63 H21         2.2759   -1.8207    5.8533 H         1 <0>         0.1670
     64 H22         1.4392   -5.9732    6.1867 H         1 <0>         0.1999
     65 H23         2.9942   -2.1590    1.6076 H         1 <0>         0.4003
     66 H24         5.0966   -2.9730    3.1605 H         1 <0>         0.0979
     67 H25         4.9121   -5.2559    4.1933 H         1 <0>         0.0803
     68 H26         5.0889   -5.9666    2.5709 H         1 <0>         0.0991
     69 H27         7.1922   -5.9811    1.4769 H         1 <0>         0.1174
     70 H28         9.6383   -5.8030    1.6271 H         1 <0>         0.1226
     71 H29        10.6968   -4.7218    3.5362 H         1 <0>         0.1263
     72 H30         5.5446   -3.8923    5.3993 H         1 <0>         0.1246
     73 H31         6.6028   -2.8019    7.3028 H         1 <0>         0.1202
     74 H32         9.0493   -2.6235    7.4529 H         1 <0>         0.1224
     75 H33        10.4779   -3.5462    5.7092 H         1 <0>         0.1266
     76 H34         4.9077   -2.7675    0.7138 H         1 <0>         0.0974
     77 H35         6.3641   -3.6998    1.1356 H         1 <0>         0.1039
     78 H36         3.7749   -5.8481   -2.2701 H         1 <0>         0.0530
     79 H37         5.4450   -6.4271   -2.4798 H         1 <0>         0.0690
     80 H38         4.4770   -6.9849   -1.0941 H         1 <0>         0.0766
     81 H39         7.0397   -4.0470   -0.9684 H         1 <0>         0.0621
     82 H40         6.3268   -4.3374   -2.5733 H         1 <0>         0.0790
     83 H41         5.6701   -3.0564   -1.5263 H         1 <0>         0.0625
@<TRIPOS>BOND
     1    1    2 1
     2    1   44 1
     3    1   45 1
     4    1   46 1
     5    2    3 1
     6    2    4 1
     7    2   47 1
     8    3   48 1
     9    3   49 1
    10    3   50 1
    11    4    5 1
    12    4   51 1
    13    4   52 1
    14    5    6 1
    15    5   12 1
    16    5   53 1
    17    6    7 1
    18    6   11 1
    19    6   54 1
    20    7    8 2
    21    7    9 1
    22    9   10 1
    23   10   55 1
    24   10   56 1
    25   10   57 1
    26   11   58 1
    27   12   13 am
    28   12   59 1
    29   13   14 2
    30   13   15 1
    31   15   16 1
    32   15   23 1
    33   15   60 1
    34   16   17 1
    35   16   61 1
    36   16   62 1
    37   17   22 1
    38   17   18 2
    39   18   19 1
    40   18   63 1
    41   19   20 1
    42   19   21 1
    43   21   22 2
    44   21   64 1
    45   23   24 am
    46   23   65 1
    47   24   25 2
    48   24   26 1
    49   26   27 1
    50   26   38 1
    51   26   66 1
    52   27   28 1
    53   27   67 1
    54   27   68 1
    55   28   33 ar
    56   28   29 ar
    57   29   30 ar
    58   29   69 1
    59   30   31 ar
    60   30   70 1
    61   31   32 ar
    62   31   71 1
    63   32   37 ar
    64   32   33 ar
    65   33   34 ar
    66   34   35 ar
    67   34   72 1
    68   35   36 ar
    69   35   73 1
    70   36   37 ar
    71   36   74 1
    72   37   75 1
    73   38   39 1
    74   38   76 1
    75   38   77 1
    76   39   40 2
    77   39   41 am
    78   41   42 1
    79   41   43 1
    80   42   78 1
    81   42   79 1
    82   42   80 1
    83   43   81 1
    84   43   82 1
    85   43   83 1
@<TRIPOS>MOLECULE
CHEMBL350425__17
   83    85     0     0     0
SMALL
USER_CHARGES

@<TRIPOS>ATOM
      1 C1         -2.1497    1.8258   -0.9500 C.3       1 <0>        -0.1463
      2 C2         -1.8964    0.3450   -1.2398 C.3       1 <0>        -0.0965
      3 C3         -0.8717    0.2142   -2.3684 C.3       1 <0>        -0.1538
      4 C4         -1.3575   -0.3363    0.0198 C.3       1 <0>        -0.1189
      5 C5         -1.2360   -1.8414   -0.2268 C.3       1 <0>         0.1176
      6 C6         -2.6222   -2.4263   -0.5042 C.3       1 <0>         0.1107
      7 C7         -2.5200   -3.9250   -0.6255 C.2       1 <0>         0.4298
      8 O1         -3.0651   -4.6353    0.1859 O.2       1 <0>        -0.4943
      9 O2         -1.8234   -4.4707   -1.6347 O.3       1 <0>        -0.3468
     10 C8         -1.7685   -5.8977   -1.6881 C.3       1 <0>         0.0326
     11 O3         -3.5032   -2.0944    0.5708 O.3       1 <0>        -0.5164
     12 N1         -0.6622   -2.4854    0.9574 N.am      1 <0>        -0.7312
     13 C9          0.6744   -2.6117    1.0748 C.2       1 <0>         0.5207
     14 O4          1.4058   -2.1125    0.2461 O.2       1 <0>        -0.5167
     15 C10         1.2603   -3.3730    2.2360 C.3       1 <0>         0.1390
     16 C11         0.8350   -2.7097    3.5474 C.3       1 <0>        -0.0511
     17 C12         1.3173   -3.5392    4.7095 C.2       1 <0>        -0.0169
     18 C13         2.5336   -3.4841    5.2850 C.2       1 <0>        -0.0058
     19 N2          2.5612   -4.3798    6.2831 N.2       1 <0>        -0.4841
     20 H1         -0.3137   -4.7565    5.2076 H         1 <0>         0.4150
     21 C14         1.4083   -4.9877    6.3479 C.2       1 <0>         0.1934
     22 N3          0.6014   -4.4892    5.3866 N.pl3     1 <0>        -0.5597
     23 N4          2.7219   -3.3662    2.1368 N.am      1 <0>        -0.7220
     24 C15         3.4412   -4.3477    2.7163 C.2       1 <0>         0.5396
     25 O5          2.8769   -5.2833    3.2425 O.2       1 <0>        -0.4991
     26 C16         4.9468   -4.2824    2.7103 C.3       1 <0>        -0.0795
     27 C17         5.5150   -5.5573    3.3370 C.3       1 <0>        -0.0673
     28 C18         7.0137   -5.4400    3.4433 C.ar      1 <0>        -0.0636
     29 C19         7.8110   -5.9491    2.4645 C.ar      1 <0>        -0.1192
     30 C20         9.1984   -5.8502    2.5455 C.ar      1 <0>        -0.1133
     31 C21         9.7969   -5.2418    3.6060 C.ar      1 <0>        -0.1101
     32 C22         9.0068   -4.7042    4.6358 C.ar      1 <0>        -0.0496
     33 C23         7.5951   -4.7994    4.5504 C.ar      1 <0>        -0.0463
     34 C24         6.8045   -4.2563    5.5778 C.ar      1 <0>        -0.1022
     35 C25         7.4029   -3.6430    6.6351 C.ar      1 <0>        -0.1150
     36 C26         8.7908   -3.5437    6.7159 C.ar      1 <0>        -0.1138
     37 C27         9.5886   -4.0694    5.7466 C.ar      1 <0>        -0.1110
     38 C28         5.4461   -4.1560    1.2696 C.3       1 <0>        -0.1423
     39 C29         4.9100   -5.3012    0.4498 C.2       1 <0>         0.5081
     40 O6          4.1260   -6.0847    0.9423 O.2       1 <0>        -0.5155
     41 N5          5.3016   -5.4547   -0.8306 N.am      1 <0>        -0.6220
     42 C30         4.7804   -6.5680   -1.6276 C.3       1 <0>         0.0856
     43 C31         6.2485   -4.5083   -1.4254 C.3       1 <0>         0.0752
     44 H2         -2.5336    2.3111   -1.8473 H         1 <0>         0.0570
     45 H3         -2.8797    1.9189   -0.1459 H         1 <0>         0.0561
     46 H4         -1.2163    2.3022   -0.6503 H         1 <0>         0.0550
     47 H5         -2.8298   -0.1315   -1.5395 H         1 <0>         0.0732
     48 H6          0.0338    0.7594   -2.1020 H         1 <0>         0.0581
     49 H7         -0.6308   -0.8380   -2.5204 H         1 <0>         0.0560
     50 H8         -1.2879    0.6280   -3.2868 H         1 <0>         0.0568
     51 H9         -0.3767    0.0725    0.2626 H         1 <0>         0.0779
     52 H10        -2.0411   -0.1581    0.8499 H         1 <0>         0.0774
     53 H11        -0.5886   -2.0177   -1.0858 H         1 <0>         0.1183
     54 H12        -3.0118   -2.0123   -1.4343 H         1 <0>         0.1551
     55 H13        -1.1761   -6.2065   -2.5493 H         1 <0>         0.1057
     56 H14        -1.3090   -6.2779   -0.7758 H         1 <0>         0.0616
     57 H15        -2.7786   -6.2970   -1.7798 H         1 <0>         0.0639
     58 H16        -3.2183   -2.4315    1.4312 H         1 <0>         0.3806
     59 H17        -1.2444   -2.8210    1.6569 H         1 <0>         0.3978
     60 H18         0.8995   -4.4014    2.2152 H         1 <0>         0.1132
     61 H19         1.2701   -1.7121    3.6078 H         1 <0>         0.0970
     62 H20        -0.2519   -2.6346    3.5809 H         1 <0>         0.0798
     63 H21         3.3445   -2.8330    4.9940 H         1 <0>         0.1545
     64 H22         1.1425   -5.7593    7.0553 H         1 <0>         0.2025
     65 H23         3.1720   -2.6554    1.6540 H         1 <0>         0.4038
     66 H24         5.2753   -3.4170    3.2860 H         1 <0>         0.1033
     67 H25         5.0898   -5.6941    4.3313 H         1 <0>         0.0894
     68 H26         5.2610   -6.4136    2.7122 H         1 <0>         0.0945
     69 H27         7.3613   -6.4375    1.6126 H         1 <0>         0.1155
     70 H28         9.8081   -6.2626    1.7552 H         1 <0>         0.1209
     71 H29        10.8736   -5.1731    3.6557 H         1 <0>         0.1250
     72 H30         5.7279   -4.3252    5.5284 H         1 <0>         0.1335
     73 H31         6.7931   -3.2265    7.4232 H         1 <0>         0.1234
     74 H32         9.2402   -3.0514    7.5657 H         1 <0>         0.1215
     75 H33        10.6626   -3.9856    5.8230 H         1 <0>         0.1249
     76 H34         5.1000   -3.2129    0.8466 H         1 <0>         0.0977
     77 H35         6.5358   -4.1806    1.2593 H         1 <0>         0.1072
     78 H36         3.8679   -6.2554   -2.1354 H         1 <0>         0.0527
     79 H37         5.5241   -6.8650   -2.3670 H         1 <0>         0.0694
     80 H38         4.5613   -7.4118   -0.9734 H         1 <0>         0.0764
     81 H39         7.2666   -4.8622   -1.2628 H         1 <0>         0.0593
     82 H40         6.0583   -4.4282   -2.4957 H         1 <0>         0.0738
     83 H41         6.1253   -3.5302   -0.9604 H         1 <0>         0.0730
@<TRIPOS>BOND
     1    1    2 1
     2    1   44 1
     3    1   45 1
     4    1   46 1
     5    2    3 1
     6    2    4 1
     7    2   47 1
     8    3   48 1
     9    3   49 1
    10    3   50 1
    11    4    5 1
    12    4   51 1
    13    4   52 1
    14    5    6 1
    15    5   12 1
    16    5   53 1
    17    6    7 1
    18    6   11 1
    19    6   54 1
    20    7    8 2
    21    7    9 1
    22    9   10 1
    23   10   55 1
    24   10   56 1
    25   10   57 1
    26   11   58 1
    27   12   13 am
    28   12   59 1
    29   13   14 2
    30   13   15 1
    31   15   16 1
    32   15   23 1
    33   15   60 1
    34   16   61 1
    35   16   62 1
    36   16   17 1
    37   17   18 2
    38   17   22 1
    39   18   19 1
    40   18   63 1
    41   19   21 2
    42   20   22 1
    43   21   64 1
    44   21   22 1
    45   23   24 am
    46   23   65 1
    47   24   25 2
    48   24   26 1
    49   26   27 1
    50   26   38 1
    51   26   66 1
    52   27   28 1
    53   27   67 1
    54   27   68 1
    55   28   33 ar
    56   28   29 ar
    57   29   30 ar
    58   29   69 1
    59   30   31 ar
    60   30   70 1
    61   31   32 ar
    62   31   71 1
    63   32   37 ar
    64   32   33 ar
    65   33   34 ar
    66   34   35 ar
    67   34   72 1
    68   35   36 ar
    69   35   73 1
    70   36   37 ar
    71   36   74 1
    72   37   75 1
    73   38   39 1
    74   38   76 1
    75   38   77 1
    76   39   40 2
    77   39   41 am
    78   41   42 1
    79   41   43 1
    80   42   78 1
    81   42   79 1
    82   42   80 1
    83   43   81 1
    84   43   82 1
    85   43   83 1
@<TRIPOS>MOLECULE
CHEMBL350425__18
   84    86     0     0     0
SMALL
USER_CHARGES

@<TRIPOS>ATOM
      1 C1         -1.1970   -0.8790   -2.9780 C.3       1 <0>        -0.1481
      2 C2         -0.6423   -2.2983   -2.8405 C.3       1 <0>        -0.0965
      3 C3          0.6729   -2.4091   -3.6143 C.3       1 <0>        -0.1545
      4 C4         -0.3924   -2.6073   -1.3630 C.3       1 <0>        -0.1200
      5 C5          0.0207   -4.0726   -1.2112 C.3       1 <0>         0.1170
      6 C6         -1.1275   -4.9759   -1.6659 C.3       1 <0>         0.1086
      7 C7         -0.7688   -6.4156   -1.4021 C.2       1 <0>         0.4316
      8 O1         -1.4037   -7.0593   -0.6006 O.2       1 <0>        -0.4978
      9 O2          0.2561   -6.9828   -2.0576 O.3       1 <0>        -0.3444
     10 C8          0.5401   -8.3509   -1.7581 C.3       1 <0>         0.0320
     11 O3         -2.3130   -4.6401   -0.9421 O.3       1 <0>        -0.5118
     12 N1          0.3327   -4.3490    0.1932 N.am      1 <0>        -0.7271
     13 C9          1.5852   -4.1627    0.6546 C.2       1 <0>         0.5160
     14 O4          2.4321   -3.6809   -0.0677 O.2       1 <0>        -0.5015
     15 C10         1.9335   -4.5531    2.0679 C.3       1 <0>         0.1297
     16 C11         1.6886   -6.0513    2.2582 C.3       1 <0>        -0.0724
     17 C12         1.9189   -6.4186    3.7015 C.2       1 <0>         0.0422
     18 C13         3.1067   -6.7137    4.2632 C.2       1 <0>         0.0464
     19 N2          2.8642   -6.9858    5.5826 N.pl3     1 <0>        -0.5006
     20 H1          3.5235   -7.2321    6.2501 H         1 <0>         0.4661
     21 C14         1.5357   -6.8473    5.7814 C.cat     1 <0>         0.3132
     22 N3          0.9775   -6.5031    4.6532 N.pl3     1 <0>        -0.4672
     23 N4          3.3443   -4.2526    2.3239 N.am      1 <0>        -0.7133
     24 C15         3.7681   -4.0303    3.5838 C.2       1 <0>         0.5274
     25 O5          2.9815   -4.0791    4.5057 O.2       1 <0>        -0.5402
     26 C16         5.2194   -3.7212    3.8472 C.3       1 <0>        -0.0912
     27 C17         5.4322   -3.5127    5.3479 C.3       1 <0>        -0.0544
     28 C18         6.9054   -3.3693    5.6312 C.ar      1 <0>        -0.0661
     29 C19         7.6923   -4.4749    5.7384 C.ar      1 <0>        -0.0834
     30 C20         9.0562   -4.3621    6.0000 C.ar      1 <0>        -0.1050
     31 C21         9.6413   -3.1431    6.1564 C.ar      1 <0>        -0.1030
     32 C22         8.8613   -1.9791    6.0527 C.ar      1 <0>        -0.0425
     33 C23         7.4749   -2.0936    5.7804 C.ar      1 <0>        -0.0359
     34 C24         6.6958   -0.9289    5.6709 C.ar      1 <0>        -0.1227
     35 C25         7.2821    0.2899    5.8214 C.ar      1 <0>        -0.1097
     36 C26         8.6465    0.4027    6.0827 C.ar      1 <0>        -0.1191
     37 C27         9.4297   -0.7032    6.2086 C.ar      1 <0>        -0.1008
     38 C28         5.6146   -2.4491    3.0945 C.3       1 <0>        -0.1409
     39 C29         7.1141   -2.3932    2.9552 C.2       1 <0>         0.5167
     40 O6          7.7893   -3.3463    3.2815 O.2       1 <0>        -0.5178
     41 N5          7.7047   -1.2841    2.4679 N.am      1 <0>        -0.6115
     42 C30         9.1493   -1.2701    2.2247 C.3       1 <0>         0.0868
     43 C31         6.9022   -0.0924    2.1815 C.3       1 <0>         0.0737
     44 H2         -1.3751   -0.6589   -4.0306 H         1 <0>         0.0600
     45 H3         -2.1340   -0.8001   -2.4267 H         1 <0>         0.0569
     46 H4         -0.4770   -0.1669   -2.5747 H         1 <0>         0.0551
     47 H5         -1.3623   -3.0104   -3.2439 H         1 <0>         0.0744
     48 H6          1.1074   -3.3957   -3.4530 H         1 <0>         0.0550
     49 H7          0.4819   -2.2657   -4.6779 H         1 <0>         0.0600
     50 H8          1.3664   -1.6449   -3.2634 H         1 <0>         0.0582
     51 H9          0.4037   -1.9646   -0.9871 H         1 <0>         0.0774
     52 H10        -1.3046   -2.4261   -0.7946 H         1 <0>         0.0784
     53 H11         0.9007   -4.2674   -1.8241 H         1 <0>         0.1230
     54 H12        -1.3007   -4.8341   -2.7327 H         1 <0>         0.1591
     55 H13         0.7795   -8.4489   -0.6993 H         1 <0>         0.0573
     56 H14        -0.3313   -8.9625   -1.9917 H         1 <0>         0.0663
     57 H15         1.3889   -8.6848   -2.3550 H         1 <0>         0.1086
     58 H16        -2.2313   -4.7429    0.0160 H         1 <0>         0.3775
     59 H17        -0.3622   -4.6661    0.7911 H         1 <0>         0.3975
     60 H18         1.3103   -3.9917    2.7639 H         1 <0>         0.1242
     61 H19         0.6613   -6.2895    1.9822 H         1 <0>         0.1085
     62 H20         2.3747   -6.6149    1.6260 H         1 <0>         0.1212
     63 H21         4.0662   -6.7325    3.7677 H         1 <0>         0.2151
     64 H22         1.0211   -6.9932    6.7197 H         1 <0>         0.2644
     65 H23         3.9735   -4.2135    1.5866 H         1 <0>         0.4195
     66 H24         5.8358   -4.5523    3.5048 H         1 <0>         0.1206
     67 H25         4.9113   -2.6099    5.6668 H         1 <0>         0.0801
     68 H26         5.0392   -4.3707    5.8933 H         1 <0>         0.0755
     69 H27         7.2527   -5.4542    5.6192 H         1 <0>         0.1089
     70 H28         9.6580   -5.2553    6.0802 H         1 <0>         0.1180
     71 H29        10.6996   -3.0710    6.3595 H         1 <0>         0.1225
     72 H30         5.6375   -1.0009    5.4680 H         1 <0>         0.1186
     73 H31         6.6811    1.1833    5.7367 H         1 <0>         0.1195
     74 H32         9.0869    1.3822    6.1974 H         1 <0>         0.1215
     75 H33        10.4854   -0.6004    6.4120 H         1 <0>         0.1250
     76 H34         5.1577   -2.4557    2.1049 H         1 <0>         0.0980
     77 H35         5.2684   -1.5766    3.6487 H         1 <0>         0.1000
     78 H36         9.3446   -1.5202    1.1819 H         1 <0>         0.0541
     79 H37         9.5445   -0.2775    2.4405 H         1 <0>         0.0666
     80 H38         9.6336   -2.0024    2.8708 H         1 <0>         0.0805
     81 H39         5.8580   -0.2908    2.4235 H         1 <0>         0.0736
     82 H40         7.2625    0.7417    2.7837 H         1 <0>         0.0654
     83 H41         6.9888    0.1585    1.1244 H         1 <0>         0.0644
     84 H42         0.0308   -6.3365    4.5230 H         1 <0>         0.4620
@<TRIPOS>BOND
     1    1    2 1
     2    1   44 1
     3    1   45 1
     4    1   46 1
     5    2    3 1
     6    2    4 1
     7    2   47 1
     8    3   48 1
     9    3   49 1
    10    3   50 1
    11    4    5 1
    12    4   51 1
    13    4   52 1
    14    5    6 1
    15    5   12 1
    16    5   53 1
    17    6    7 1
    18    6   11 1
    19    6   54 1
    20    7    8 2
    21    7    9 1
    22    9   10 1
    23   10   55 1
    24   10   56 1
    25   10   57 1
    26   11   58 1
    27   12   13 am
    28   12   59 1
    29   13   14 2
    30   13   15 1
    31   15   16 1
    32   15   23 1
    33   15   60 1
    34   16   17 1
    35   16   61 1
    36   16   62 1
    37   17   22 1
    38   17   18 2
    39   18   19 1
    40   18   63 1
    41   19   20 1
    42   19   21 1
    43   21   22 2
    44   21   64 1
    45   22   84 1
    46   23   24 am
    47   23   65 1
    48   24   25 2
    49   24   26 1
    50   26   27 1
    51   26   38 1
    52   26   66 1
    53   27   28 1
    54   27   67 1
    55   27   68 1
    56   28   33 ar
    57   28   29 ar
    58   29   30 ar
    59   29   69 1
    60   30   31 ar
    61   30   70 1
    62   31   32 ar
    63   31   71 1
    64   32   37 ar
    65   32   33 ar
    66   33   34 ar
    67   34   35 ar
    68   34   72 1
    69   35   36 ar
    70   35   73 1
    71   36   37 ar
    72   36   74 1
    73   37   75 1
    74   38   39 1
    75   38   76 1
    76   38   77 1
    77   39   40 2
    78   39   41 am
    79   41   42 1
    80   41   43 1
    81   42   78 1
    82   42   79 1
    83   42   80 1
    84   43   81 1
    85   43   82 1
    86   43   83 1
@<TRIPOS>MOLECULE
CHEMBL350425__19
   83    85     0     0     0
SMALL
USER_CHARGES

@<TRIPOS>ATOM
      1 C1         -0.3546    2.5311   -1.6146 C.3       1 <0>        -0.1465
      2 C2          0.1076    1.2212   -2.2560 C.3       1 <0>        -0.0963
      3 C3          1.4901    1.4193   -2.8808 C.3       1 <0>        -0.1535
      4 C4          0.1826    0.1287   -1.1875 C.3       1 <0>        -0.1197
      5 C5          0.5150   -1.2101   -1.8494 C.3       1 <0>         0.1176
      6 C6         -0.6115   -1.5980   -2.8094 C.3       1 <0>         0.1108
      7 C7         -0.3444   -2.9718   -3.3682 C.2       1 <0>         0.4284
      8 O1         -1.0912   -3.8854   -3.1082 O.2       1 <0>        -0.4900
      9 O2          0.7230   -3.1806   -4.1548 O.3       1 <0>        -0.3474
     10 C8          0.9148   -4.5075   -4.6494 C.3       1 <0>         0.0318
     11 O3         -1.8556   -1.6032   -2.1065 O.3       1 <0>        -0.5166
     12 N1          0.6560   -2.2424   -0.8195 N.am      1 <0>        -0.7291
     13 C9          1.8558   -2.4633   -0.2467 C.2       1 <0>         0.5204
     14 O4          2.7976   -1.7483   -0.5166 O.2       1 <0>        -0.5194
     15 C10         2.0273   -3.5988    0.7292 C.3       1 <0>         0.1340
     16 C11         1.7001   -4.9221    0.0344 C.3       1 <0>        -0.0508
     17 C12         1.1983   -5.9134    1.0526 C.2       1 <0>        -0.0165
     18 C13        -0.0675   -6.0388    1.4948 C.2       1 <0>        -0.0186
     19 N2         -0.0965   -7.0347    2.3928 N.2       1 <0>        -0.4928
     20 H1          2.8907   -7.0245    1.5925 H         1 <0>         0.4130
     21 C14         1.1032   -7.5311    2.5239 C.2       1 <0>         0.1962
     22 N3          1.9404   -6.8632    1.7013 N.pl3     1 <0>        -0.5395
     23 N4          3.4119   -3.6273    1.2069 N.am      1 <0>        -0.7178
     24 C15         3.6979   -4.1561    2.4131 C.2       1 <0>         0.5163
     25 O5          2.8275   -4.7021    3.0576 O.2       1 <0>        -0.5029
     26 C16         5.0990   -4.0691    2.9610 C.3       1 <0>        -0.0875
     27 C17         5.1983   -4.9000    4.2419 C.3       1 <0>        -0.0677
     28 C18         5.0650   -6.3625    3.9036 C.ar      1 <0>        -0.0673
     29 C19         3.9408   -7.0459    4.2532 C.ar      1 <0>        -0.0932
     30 C20         3.7996   -8.3982    3.9490 C.ar      1 <0>        -0.1263
     31 C21         4.7819   -9.0754    3.2936 C.ar      1 <0>        -0.1117
     32 C22         5.9568   -8.4036    2.9165 C.ar      1 <0>        -0.0559
     33 C23         6.0979   -7.0263    3.2205 C.ar      1 <0>        -0.0473
     34 C24         7.2708   -6.3529    2.8381 C.ar      1 <0>        -0.1174
     35 C25         8.2502   -7.0287    2.1777 C.ar      1 <0>        -0.1207
     36 C26         8.1087   -8.3814    1.8730 C.ar      1 <0>        -0.1158
     37 C27         6.9929   -9.0693    2.2392 C.ar      1 <0>        -0.1131
     38 C28         5.4350   -2.6093    3.2727 C.3       1 <0>        -0.1356
     39 C29         6.8919   -2.4968    3.6413 C.2       1 <0>         0.5167
     40 O6          7.5706   -3.4967    3.7433 O.2       1 <0>        -0.5303
     41 N5          7.4406   -1.2850    3.8577 N.am      1 <0>        -0.6191
     42 C30         8.8256   -1.1806    4.3236 C.3       1 <0>         0.0848
     43 C31         6.6521   -0.0721    3.6268 C.3       1 <0>         0.0729
     44 H2         -0.4081    3.3094   -2.3758 H         1 <0>         0.0569
     45 H3         -1.3396    2.3899   -1.1695 H         1 <0>         0.0565
     46 H4          0.3544    2.8271   -0.8415 H         1 <0>         0.0543
     47 H5         -0.6014    0.9252   -3.0292 H         1 <0>         0.0738
     48 H6          2.1811    1.7904   -2.1238 H         1 <0>         0.0574
     49 H7          1.8532    0.4677   -3.2689 H         1 <0>         0.0563
     50 H8          1.4210    2.1410   -3.6947 H         1 <0>         0.0567
     51 H9          0.9594    0.3796   -0.4652 H         1 <0>         0.0767
     52 H10        -0.7775    0.0532   -0.6771 H         1 <0>         0.0782
     53 H11         1.4494   -1.1195   -2.4034 H         1 <0>         0.1189
     54 H12        -0.6581   -0.8766   -3.6252 H         1 <0>         0.1546
     55 H13         1.8105   -4.5381   -5.2698 H         1 <0>         0.1053
     56 H14         1.0299   -5.1946   -3.8111 H         1 <0>         0.0612
     57 H15         0.0504   -4.8019   -5.2445 H         1 <0>         0.0640
     58 H16        -1.8861   -2.2235   -1.3654 H         1 <0>         0.3825
     59 H17        -0.1141   -2.7668   -0.5498 H         1 <0>         0.4014
     60 H18         1.3542   -3.4561    1.5745 H         1 <0>         0.1240
     61 H19         0.9314   -4.7559   -0.7203 H         1 <0>         0.0932
     62 H20         2.5985   -5.3141   -0.4422 H         1 <0>         0.0808
     63 H21        -0.9114   -5.4422    1.1813 H         1 <0>         0.1610
     64 H22         1.3800   -8.3438    3.1791 H         1 <0>         0.1975
     65 H23         4.1229   -3.2656    0.6550 H         1 <0>         0.4086
     66 H24         5.8024   -4.4541    2.2227 H         1 <0>         0.1061
     67 H25         6.1639   -4.7232    4.7157 H         1 <0>         0.0996
     68 H26         4.3999   -4.6109    4.9253 H         1 <0>         0.0808
     69 H27         3.1466   -6.5322    4.7746 H         1 <0>         0.1270
     70 H28         2.8974   -8.9170    4.2377 H         1 <0>         0.1208
     71 H29         4.6589  -10.1238    3.0650 H         1 <0>         0.1239
     72 H30         7.3940   -5.3046    3.0668 H         1 <0>         0.1605
     73 H31         9.1504   -6.5088    1.8849 H         1 <0>         0.1191
     74 H32         8.9010   -8.8940    1.3477 H         1 <0>         0.1195
     75 H33         6.8976  -10.1174    1.9971 H         1 <0>         0.1234
     76 H34         5.2337   -1.9948    2.3952 H         1 <0>         0.1014
     77 H35         4.8218   -2.2653    4.1056 H         1 <0>         0.1049
     78 H36         9.5005   -1.2196    3.4686 H         1 <0>         0.0572
     79 H37         8.9614   -0.2364    4.8509 H         1 <0>         0.0725
     80 H38         9.0453   -2.0083    4.9980 H         1 <0>         0.0753
     81 H39         6.1307    0.2024    4.5439 H         1 <0>         0.0607
     82 H40         7.3144    0.7406    3.3284 H         1 <0>         0.0764
     83 H41         5.9244   -0.2566    2.8365 H         1 <0>         0.0746
@<TRIPOS>BOND
     1    1    2 1
     2    1   44 1
     3    1   45 1
     4    1   46 1
     5    2    3 1
     6    2    4 1
     7    2   47 1
     8    3   48 1
     9    3   49 1
    10    3   50 1
    11    4    5 1
    12    4   51 1
    13    4   52 1
    14    5    6 1
    15    5   12 1
    16    5   53 1
    17    6    7 1
    18    6   11 1
    19    6   54 1
    20    7    8 2
    21    7    9 1
    22    9   10 1
    23   10   55 1
    24   10   56 1
    25   10   57 1
    26   11   58 1
    27   12   13 am
    28   12   59 1
    29   13   14 2
    30   13   15 1
    31   15   16 1
    32   15   23 1
    33   15   60 1
    34   16   61 1
    35   16   62 1
    36   16   17 1
    37   17   18 2
    38   17   22 1
    39   18   19 1
    40   18   63 1
    41   19   21 2
    42   20   22 1
    43   21   64 1
    44   21   22 1
    45   23   24 am
    46   23   65 1
    47   24   25 2
    48   24   26 1
    49   26   27 1
    50   26   38 1
    51   26   66 1
    52   27   28 1
    53   27   67 1
    54   27   68 1
    55   28   33 ar
    56   28   29 ar
    57   29   30 ar
    58   29   69 1
    59   30   31 ar
    60   30   70 1
    61   31   32 ar
    62   31   71 1
    63   32   37 ar
    64   32   33 ar
    65   33   34 ar
    66   34   35 ar
    67   34   72 1
    68   35   36 ar
    69   35   73 1
    70   36   37 ar
    71   36   74 1
    72   37   75 1
    73   38   39 1
    74   38   76 1
    75   38   77 1
    76   39   40 2
    77   39   41 am
    78   41   42 1
    79   41   43 1
    80   42   78 1
    81   42   79 1
    82   42   80 1
    83   43   81 1
    84   43   82 1
    85   43   83 1
@<TRIPOS>MOLECULE
CHEMBL350425__20
   83    85     0     0     0
SMALL
USER_CHARGES

@<TRIPOS>ATOM
      1 C1         -0.7136   -0.6198   -3.3555 C.3       1 <0>        -0.1464
      2 C2         -0.2082   -2.0573   -3.2175 C.3       1 <0>        -0.0962
      3 C3          1.1407   -2.1939   -3.9264 C.3       1 <0>        -0.1536
      4 C4         -0.0424   -2.3996   -1.7355 C.3       1 <0>        -0.1198
      5 C5          0.3204   -3.8789   -1.5912 C.3       1 <0>         0.1178
      6 C6         -0.8269   -4.7397   -2.1237 C.3       1 <0>         0.1106
      7 C7         -0.5235   -6.1939   -1.8700 C.2       1 <0>         0.4309
      8 O1         -1.2182   -6.8334   -1.1161 O.2       1 <0>        -0.4939
      9 O2          0.5185   -6.7787   -2.4815 O.3       1 <0>        -0.3464
     10 C8          0.7474   -8.1598   -2.1947 C.3       1 <0>         0.0321
     11 O3         -2.0394   -4.3827   -1.4570 O.3       1 <0>        -0.5174
     12 N1          0.5491   -4.1900   -0.1780 N.am      1 <0>        -0.7314
     13 C9          1.7803   -4.0502    0.3521 C.2       1 <0>         0.5186
     14 O4          2.6781   -3.5812   -0.3149 O.2       1 <0>        -0.5192
     15 C10         2.0415   -4.4767    1.7737 C.3       1 <0>         0.1428
     16 C11         1.7429   -5.9700    1.9212 C.3       1 <0>        -0.0388
     17 C12         1.8854   -6.3703    3.3671 C.2       1 <0>         0.0026
     18 C13         0.9496   -6.9878    4.1131 C.2       1 <0>        -0.0521
     19 N2          1.4890   -7.1640    5.3588 N.pl3     1 <0>        -0.5708
     20 H1          1.0561   -7.5818    6.1197 H         1 <0>         0.4174
     21 C14         2.7365   -6.6477    5.3305 C.2       1 <0>         0.1883
     22 N3          2.9685   -6.1793    4.1348 N.2       1 <0>        -0.4479
     23 N4          3.4449   -4.2237    2.1095 N.am      1 <0>        -0.7159
     24 C15         3.8075   -4.0375    3.3941 C.2       1 <0>         0.5514
     25 O5          2.9719   -4.0792    4.2722 O.2       1 <0>        -0.5143
     26 C16         5.2511   -3.7773    3.7394 C.3       1 <0>        -0.0781
     27 C17         5.3900   -3.6028    5.2531 C.3       1 <0>        -0.0565
     28 C18         6.8497   -3.5139    5.6167 C.ar      1 <0>        -0.0513
     29 C19         7.5961   -4.6463    5.7331 C.ar      1 <0>        -0.0868
     30 C20         8.9470   -4.5839    6.0685 C.ar      1 <0>        -0.0978
     31 C21         9.5596   -3.3886    6.2898 C.ar      1 <0>        -0.1170
     32 C22         8.8217   -2.1982    6.1789 C.ar      1 <0>        -0.0422
     33 C23         7.4489   -2.2613    5.8316 C.ar      1 <0>        -0.0384
     34 C24         6.7122   -1.0700    5.7150 C.ar      1 <0>        -0.1135
     35 C25         7.3263    0.1251    5.9305 C.ar      1 <0>        -0.1194
     36 C26         8.6778    0.1876    6.2656 C.ar      1 <0>        -0.1214
     37 C27         9.4194   -0.9456    6.4005 C.ar      1 <0>        -0.1056
     38 C28         5.7228   -2.5043    3.0339 C.3       1 <0>        -0.1383
     39 C29         7.2286   -2.4918    2.9739 C.2       1 <0>         0.5170
     40 O6          7.8574   -3.4694    3.3201 O.2       1 <0>        -0.5154
     41 N5          7.8765   -1.3943    2.5354 N.am      1 <0>        -0.6171
     42 C30         9.3318   -1.4202    2.3693 C.3       1 <0>         0.0887
     43 C31         7.1253   -0.1754    2.2249 C.3       1 <0>         0.0798
     44 H2         -0.8317   -0.3760   -4.4113 H         1 <0>         0.0566
     45 H3         -1.6746   -0.5225   -2.8505 H         1 <0>         0.0560
     46 H4          0.0054    0.0631   -2.9031 H         1 <0>         0.0546
     47 H5         -0.9272   -2.7403   -3.6699 H         1 <0>         0.0731
     48 H6          1.8373   -1.4567   -3.5272 H         1 <0>         0.0577
     49 H7          1.5379   -3.1956   -3.7618 H         1 <0>         0.0568
     50 H8          1.0080   -2.0268   -4.9953 H         1 <0>         0.0563
     51 H9          0.7515   -1.7873   -1.3078 H         1 <0>         0.0771
     52 H10        -0.9768   -2.2017   -1.2102 H         1 <0>         0.0770
     53 H11         1.2261   -4.0881   -2.1604 H         1 <0>         0.1185
     54 H12        -0.9389   -4.5735   -3.1951 H         1 <0>         0.1541
     55 H13         1.6171   -8.5074   -2.7524 H         1 <0>         0.1055
     56 H14         0.9271   -8.2841   -1.1268 H         1 <0>         0.0623
     57 H15        -0.1273   -8.7412   -2.4861 H         1 <0>         0.0629
     58 H16        -2.0119   -4.5054   -0.4982 H         1 <0>         0.3817
     59 H17        -0.1856   -4.4966    0.3762 H         1 <0>         0.3993
     60 H18         1.3989   -3.9094    2.4471 H         1 <0>         0.1131
     61 H19         0.7253   -6.1718    1.5869 H         1 <0>         0.0807
     62 H20         2.4448   -6.5425    1.3149 H         1 <0>         0.0795
     63 H21        -0.0370   -7.2863    3.7907 H         1 <0>         0.1687
     64 H22         3.4290   -6.6292    6.1591 H         1 <0>         0.1982
     65 H23         4.1131   -4.1904    1.4072 H         1 <0>         0.4042
     66 H24         5.8603   -4.6204    3.4135 H         1 <0>         0.1136
     67 H25         4.8823   -2.6889    5.5616 H         1 <0>         0.0726
     68 H26         4.9407   -4.4568    5.7600 H         1 <0>         0.0864
     69 H27         7.1340   -5.6077    5.5634 H         1 <0>         0.1152
     70 H28         9.5165   -5.4975    6.1544 H         1 <0>         0.1153
     71 H29        10.6074   -3.3556    6.5497 H         1 <0>         0.1180
     72 H30         5.6644   -1.1030    5.4553 H         1 <0>         0.1217
     73 H31         6.7579    1.0390    5.8402 H         1 <0>         0.1166
     74 H32         9.1409    1.1492    6.4310 H         1 <0>         0.1168
     75 H33        10.4655   -0.8818    6.6615 H         1 <0>         0.1205
     76 H34         5.3186   -2.4787    2.0220 H         1 <0>         0.0952
     77 H35         5.3740   -1.6320    3.5867 H         1 <0>         0.0931
     78 H36         9.5751   -1.6614    1.3345 H         1 <0>         0.0497
     79 H37         9.7437   -0.4430    2.6211 H         1 <0>         0.0626
     80 H38         9.7593   -2.1756    3.0286 H         1 <0>         0.0789
     81 H39         6.6026    0.1666    3.1181 H         1 <0>         0.0598
     82 H40         7.8137    0.5995    1.8876 H         1 <0>         0.0757
     83 H41         6.4009   -0.3856    1.4380 H         1 <0>         0.0596
@<TRIPOS>BOND
     1    1    2 1
     2    1   44 1
     3    1   45 1
     4    1   46 1
     5    2    3 1
     6    2    4 1
     7    2   47 1
     8    3   48 1
     9    3   49 1
    10    3   50 1
    11    4    5 1
    12    4   51 1
    13    4   52 1
    14    5    6 1
    15    5   12 1
    16    5   53 1
    17    6    7 1
    18    6   11 1
    19    6   54 1
    20    7    8 2
    21    7    9 1
    22    9   10 1
    23   10   55 1
    24   10   56 1
    25   10   57 1
    26   11   58 1
    27   12   13 am
    28   12   59 1
    29   13   14 2
    30   13   15 1
    31   15   16 1
    32   15   23 1
    33   15   60 1
    34   16   17 1
    35   16   61 1
    36   16   62 1
    37   17   22 1
    38   17   18 2
    39   18   19 1
    40   18   63 1
    41   19   20 1
    42   19   21 1
    43   21   22 2
    44   21   64 1
    45   23   24 am
    46   23   65 1
    47   24   25 2
    48   24   26 1
    49   26   27 1
    50   26   38 1
    51   26   66 1
    52   27   28 1
    53   27   67 1
    54   27   68 1
    55   28   33 ar
    56   28   29 ar
    57   29   30 ar
    58   29   69 1
    59   30   31 ar
    60   30   70 1
    61   31   32 ar
    62   31   71 1
    63   32   37 ar
    64   32   33 ar
    65   33   34 ar
    66   34   35 ar
    67   34   72 1
    68   35   36 ar
    69   35   73 1
    70   36   37 ar
    71   36   74 1
    72   37   75 1
    73   38   39 1
    74   38   76 1
    75   38   77 1
    76   39   40 2
    77   39   41 am
    78   41   42 1
    79   41   43 1
    80   42   78 1
    81   42   79 1
    82   42   80 1
    83   43   81 1
    84   43   82 1
    85   43   83 1
@<TRIPOS>MOLECULE
CHEMBL350425__21
   84    86     0     0     0
SMALL
USER_CHARGES

@<TRIPOS>ATOM
      1 C1         -0.4287    4.9445    2.4363 C.3       1 <0>        -0.1483
      2 C2         -0.4116    3.8186    1.4005 C.3       1 <0>        -0.0960
      3 C3          0.6537    4.1147    0.3429 C.3       1 <0>        -0.1544
      4 C4         -0.0881    2.4932    2.0930 C.3       1 <0>        -0.1209
      5 C5         -0.2239    1.3467    1.0891 C.3       1 <0>         0.1172
      6 C6         -1.6791    1.2418    0.6284 C.3       1 <0>         0.1088
      7 C7         -1.8378    0.0382   -0.2645 C.2       1 <0>         0.4320
      8 O1         -2.5321   -0.8865    0.0858 O.2       1 <0>        -0.4979
      9 O2         -1.2079   -0.0065   -1.4489 O.3       1 <0>        -0.3444
     10 C8         -1.4033   -1.1778   -2.2438 C.3       1 <0>         0.0320
     11 O3         -2.5307    1.1053    1.7678 O.3       1 <0>        -0.5116
     12 N1          0.1787    0.0901    1.7255 N.am      1 <0>        -0.7273
     13 C9          1.4688   -0.2985    1.6933 C.2       1 <0>         0.5150
     14 O4          2.3110    0.4337    1.2186 O.2       1 <0>        -0.4998
     15 C10         1.8648   -1.6429    2.2473 C.3       1 <0>         0.1300
     16 C11         1.1275   -2.7458    1.4853 C.3       1 <0>        -0.0722
     17 C12         1.4279   -4.0804    2.1175 C.2       1 <0>         0.0453
     18 C13         2.5000   -4.8541    1.8613 C.2       1 <0>         0.0467
     19 N2          2.3809   -5.9686    2.6470 N.pl3     1 <0>        -0.5005
     20 H1          3.0007   -6.7137    2.6868 H         1 <0>         0.4652
     21 C14         1.2395   -5.8370    3.3566 C.cat     1 <0>         0.3136
     22 N3          0.6774   -4.7031    3.0384 N.pl3     1 <0>        -0.4667
     23 N4          3.3103   -1.8270    2.0957 N.am      1 <0>        -0.7134
     24 C15         3.9735   -2.6616    2.9203 C.2       1 <0>         0.5301
     25 O5          3.3640   -3.3146    3.7407 O.2       1 <0>        -0.5409
     26 C16         5.4724   -2.7834    2.8231 C.3       1 <0>        -0.0973
     27 C17         5.9653   -3.8286    3.8258 C.3       1 <0>        -0.0526
     28 C18         7.4722   -3.8410    3.8386 C.ar      1 <0>        -0.0580
     29 C19         8.1543   -4.8009    3.1556 C.ar      1 <0>        -0.1184
     30 C20         9.5474   -4.8285    3.1559 C.ar      1 <0>        -0.1144
     31 C21        10.2667   -3.8967    3.8394 C.ar      1 <0>        -0.0974
     32 C22         9.5976   -2.8904    4.5561 C.ar      1 <0>        -0.0399
     33 C23         8.1805   -2.8586    4.5507 C.ar      1 <0>        -0.0116
     34 C24         7.5113   -1.8484    5.2629 C.ar      1 <0>        -0.1123
     35 C25         8.2307   -0.9134    5.9413 C.ar      1 <0>        -0.1119
     36 C26         9.6243   -0.9408    5.9413 C.ar      1 <0>        -0.1173
     37 C27        10.3060   -1.9116    5.2741 C.ar      1 <0>        -0.1036
     38 C28         5.8583   -3.2139    1.4065 C.3       1 <0>        -0.1368
     39 C29         7.3152   -2.9109    1.1687 C.2       1 <0>         0.5080
     40 O6          7.9371   -2.2524    1.9753 O.2       1 <0>        -0.5006
     41 N5          7.9271   -3.3716    0.0597 N.am      1 <0>        -0.6180
     42 C30         9.3434   -3.0770   -0.1714 C.3       1 <0>         0.0872
     43 C31         7.1758   -4.1669   -0.9146 C.3       1 <0>         0.0741
     44 H2         -0.6591    5.8887    1.9429 H         1 <0>         0.0600
     45 H3         -1.1876    4.7336    3.1897 H         1 <0>         0.0569
     46 H4          0.5485    5.0133    2.9143 H         1 <0>         0.0554
     47 H5         -1.3888    3.7498    0.9225 H         1 <0>         0.0740
     48 H6          0.7171    3.2782   -0.3531 H         1 <0>         0.0548
     49 H7          0.3842    5.0202   -0.2008 H         1 <0>         0.0599
     50 H8          1.6189    4.2566    0.8292 H         1 <0>         0.0584
     51 H9          0.9322    2.5226    2.4753 H         1 <0>         0.0777
     52 H10        -0.7814    2.3365    2.9195 H         1 <0>         0.0787
     53 H11         0.4166    1.5396    0.2285 H         1 <0>         0.1228
     54 H12        -1.9514    2.1417    0.0770 H         1 <0>         0.1591
     55 H13        -1.0555   -2.0523   -1.6939 H         1 <0>         0.0571
     56 H14        -2.4634   -1.2897   -2.4715 H         1 <0>         0.0662
     57 H15        -0.8401   -1.0848   -3.1724 H         1 <0>         0.1083
     58 H16        -2.3449    0.3240    2.3064 H         1 <0>         0.3775
     59 H17        -0.4833   -0.4623    2.1700 H         1 <0>         0.3973
     60 H18         1.6011   -1.6925    3.3038 H         1 <0>         0.1236
     61 H19         0.0543   -2.5589    1.5237 H         1 <0>         0.1086
     62 H20         1.4581   -2.7532    0.4466 H         1 <0>         0.1207
     63 H21         3.2997   -4.6371    1.1687 H         1 <0>         0.2113
     64 H22         0.8573   -6.5502    4.0719 H         1 <0>         0.2641
     65 H23         3.7900   -1.3482    1.4017 H         1 <0>         0.4191
     66 H24         5.9305   -1.8201    3.0475 H         1 <0>         0.1284
     67 H25         5.5955   -3.5804    4.8207 H         1 <0>         0.0870
     68 H26         5.5963   -4.8124    3.5360 H         1 <0>         0.0689
     69 H27         7.6075   -5.5525    2.6057 H         1 <0>         0.1069
     70 H28        10.0641   -5.6010    2.6058 H         1 <0>         0.1156
     71 H29        11.3461   -3.9310    3.8312 H         1 <0>         0.1223
     72 H30         6.4319   -1.8141    5.2714 H         1 <0>         0.1166
     73 H31         7.7140   -0.1382    6.4878 H         1 <0>         0.1195
     74 H32        10.1711   -0.1866    6.4876 H         1 <0>         0.1222
     75 H33        11.3859   -1.9207    5.2835 H         1 <0>         0.1252
     76 H34         5.6864   -4.2842    1.2925 H         1 <0>         0.0928
     77 H35         5.2512   -2.6694    0.6832 H         1 <0>         0.0958
     78 H36         9.9550   -3.8629    0.2717 H         1 <0>         0.0564
     79 H37         9.5343   -3.0291   -1.2435 H         1 <0>         0.0691
     80 H38         9.5947   -2.1199    0.2855 H         1 <0>         0.0781
     81 H39         6.1465   -4.2807   -0.5744 H         1 <0>         0.0703
     82 H40         7.1855   -3.6621   -1.8806 H         1 <0>         0.0659
     83 H41         7.6364   -5.1499   -1.0137 H         1 <0>         0.0643
     84 H42        -0.1531   -4.3648    3.4081 H         1 <0>         0.4621
@<TRIPOS>BOND
     1    1    2 1
     2    1   44 1
     3    1   45 1
     4    1   46 1
     5    2    3 1
     6    2    4 1
     7    2   47 1
     8    3   48 1
     9    3   49 1
    10    3   50 1
    11    4    5 1
    12    4   51 1
    13    4   52 1
    14    5    6 1
    15    5   12 1
    16    5   53 1
    17    6    7 1
    18    6   11 1
    19    6   54 1
    20    7    8 2
    21    7    9 1
    22    9   10 1
    23   10   55 1
    24   10   56 1
    25   10   57 1
    26   11   58 1
    27   12   13 am
    28   12   59 1
    29   13   14 2
    30   13   15 1
    31   15   16 1
    32   15   23 1
    33   15   60 1
    34   16   17 1
    35   16   61 1
    36   16   62 1
    37   17   22 1
    38   17   18 2
    39   18   19 1
    40   18   63 1
    41   19   20 1
    42   19   21 1
    43   21   22 2
    44   21   64 1
    45   22   84 1
    46   23   24 am
    47   23   65 1
    48   24   25 2
    49   24   26 1
    50   26   27 1
    51   26   38 1
    52   26   66 1
    53   27   28 1
    54   27   67 1
    55   27   68 1
    56   28   33 ar
    57   28   29 ar
    58   29   30 ar
    59   29   69 1
    60   30   31 ar
    61   30   70 1
    62   31   32 ar
    63   31   71 1
    64   32   37 ar
    65   32   33 ar
    66   33   34 ar
    67   34   35 ar
    68   34   72 1
    69   35   36 ar
    70   35   73 1
    71   36   37 ar
    72   36   74 1
    73   37   75 1
    74   38   39 1
    75   38   76 1
    76   38   77 1
    77   39   40 2
    78   39   41 am
    79   41   42 1
    80   41   43 1
    81   42   78 1
    82   42   79 1
    83   42   80 1
    84   43   81 1
    85   43   82 1
    86   43   83 1
@<TRIPOS>MOLECULE
CHEMBL350425__22
   83    85     0     0     0
SMALL
USER_CHARGES

@<TRIPOS>ATOM
      1 C1         -2.9453    3.1019    2.5398 C.3       1 <0>        -0.1467
      2 C2         -2.6384    1.9685    1.5589 C.3       1 <0>        -0.0954
      3 C3         -1.5881    2.4375    0.5500 C.3       1 <0>        -0.1529
      4 C4         -2.1025    0.7594    2.3281 C.3       1 <0>        -0.1210
      5 C5         -1.9014   -0.4107    1.3630 C.3       1 <0>         0.1179
      6 C6         -3.2593   -0.8695    0.8277 C.3       1 <0>         0.1112
      7 C7         -3.0739   -2.0978   -0.0256 C.2       1 <0>         0.4297
      8 O1         -3.5513   -3.1521    0.3215 O.2       1 <0>        -0.4912
      9 O2         -2.3786   -2.0205   -1.1711 O.3       1 <0>        -0.3473
     10 C8         -2.2425   -3.2238   -1.9298 C.3       1 <0>         0.0320
     11 O3         -4.1241   -1.1765    1.9231 O.3       1 <0>        -0.5169
     12 N1         -1.2546   -1.5199    2.0685 N.am      1 <0>        -0.7314
     13 C9          0.0899   -1.5799    2.1408 C.2       1 <0>         0.5153
     14 O4          0.7620   -0.6706    1.7022 O.2       1 <0>        -0.5174
     15 C10         0.7581   -2.7768    2.7669 C.3       1 <0>         0.1316
     16 C11         0.3730   -4.0390    1.9926 C.3       1 <0>        -0.0455
     17 C12         0.8509   -5.2547    2.7440 C.2       1 <0>        -0.0286
     18 C13         0.1931   -5.9025    3.7244 C.2       1 <0>        -0.0048
     19 N2          0.9565   -6.9286    4.1286 N.2       1 <0>        -0.4930
     20 H1          2.7255   -5.6897    1.9150 H         1 <0>         0.4047
     21 C14         2.0624   -6.9413    3.4358 C.2       1 <0>         0.2161
     22 N3          2.0345   -5.9163    2.5570 N.pl3     1 <0>        -0.5518
     23 N4          2.2121   -2.6023    2.7241 N.am      1 <0>        -0.7193
     24 C15         2.9572   -2.8868    3.8105 C.2       1 <0>         0.5255
     25 O5          2.4342   -3.3583    4.7980 O.2       1 <0>        -0.4940
     26 C16         4.4401   -2.6190    3.7984 C.3       1 <0>        -0.0812
     27 C17         5.0342   -2.9765    5.1623 C.3       1 <0>        -0.0733
     28 C18         6.4917   -2.5945    5.1911 C.ar      1 <0>        -0.0650
     29 C19         7.4468   -3.5171    4.8916 C.ar      1 <0>        -0.1157
     30 C20         8.7992   -3.1825    4.9130 C.ar      1 <0>        -0.1132
     31 C21         9.2046   -1.9234    5.2344 C.ar      1 <0>        -0.1090
     32 C22         8.2477   -0.9441    5.5494 C.ar      1 <0>        -0.0495
     33 C23         6.8716   -1.2828    5.5215 C.ar      1 <0>        -0.0462
     34 C24         5.9141   -0.3015    5.8309 C.ar      1 <0>        -0.1073
     35 C25         6.3193    0.9587    6.1464 C.ar      1 <0>        -0.1150
     36 C26         7.6722    1.2935    6.1674 C.ar      1 <0>        -0.1145
     37 C27         8.6280    0.3663    5.8865 C.ar      1 <0>        -0.1075
     38 C28         5.1033   -3.4708    2.7141 C.3       1 <0>        -0.1395
     39 C29         4.8262   -4.9280    2.9805 C.2       1 <0>         0.4916
     40 O6          4.1833   -5.2545    3.9557 O.2       1 <0>        -0.4903
     41 N5          5.2927   -5.8682    2.1351 N.am      1 <0>        -0.6272
     42 C30         5.0232   -7.2847    2.3941 C.3       1 <0>         0.0739
     43 C31         6.0692   -5.4737    0.9571 C.3       1 <0>         0.0725
     44 H2         -3.3271    3.9633    1.9918 H         1 <0>         0.0568
     45 H3         -3.6935    2.7677    3.2585 H         1 <0>         0.0564
     46 H4         -2.0339    3.3820    3.0679 H         1 <0>         0.0546
     47 H5         -3.5499    1.6883    1.0307 H         1 <0>         0.0726
     48 H6         -0.6995    2.7772    1.0821 H         1 <0>         0.0576
     49 H7         -1.3231    1.6111   -0.1094 H         1 <0>         0.0561
     50 H8         -1.9935    3.2585   -0.0414 H         1 <0>         0.0562
     51 H9         -1.1498    1.0164    2.7910 H         1 <0>         0.0769
     52 H10        -2.8168    0.4745    3.1006 H         1 <0>         0.0785
     53 H11        -1.2720   -0.0923    0.5321 H         1 <0>         0.1177
     54 H12        -3.7011   -0.0737    0.2279 H         1 <0>         0.1540
     55 H13        -1.6603   -3.0224   -2.8290 H         1 <0>         0.1048
     56 H14        -1.7334   -3.9769   -1.3284 H         1 <0>         0.0609
     57 H15        -3.2300   -3.5898   -2.2108 H         1 <0>         0.0638
     58 H16        -3.7934   -1.8780    2.5007 H         1 <0>         0.3826
     59 H17        -1.7940   -2.2111    2.4835 H         1 <0>         0.3998
     60 H18         0.4341   -2.8732    3.8031 H         1 <0>         0.1302
     61 H19        -0.7107   -4.0819    1.8837 H         1 <0>         0.0959
     62 H20         0.8366   -4.0158    1.0064 H         1 <0>         0.0741
     63 H21        -0.7788   -5.6415    4.1165 H         1 <0>         0.1609
     64 H22         2.8653   -7.6553    3.5449 H         1 <0>         0.1952
     65 H23         2.6385   -2.2820    1.9139 H         1 <0>         0.4018
     66 H24         4.6171   -1.5638    3.5903 H         1 <0>         0.1038
     67 H25         4.5012   -2.4351    5.9439 H         1 <0>         0.0816
     68 H26         4.9362   -4.0488    5.3315 H         1 <0>         0.1097
     69 H27         7.1519   -4.5236    4.6340 H         1 <0>         0.1165
     70 H28         9.5368   -3.9334    4.6714 H         1 <0>         0.1216
     71 H29        10.2565   -1.6786    5.2476 H         1 <0>         0.1260
     72 H30         4.8623   -0.5462    5.8179 H         1 <0>         0.1267
     73 H31         5.5815    1.7109    6.3837 H         1 <0>         0.1228
     74 H32         7.9668    2.3012    6.4208 H         1 <0>         0.1231
     75 H33         9.6725    0.6399    5.9075 H         1 <0>         0.1266
     76 H34         4.7001   -3.1966    1.7393 H         1 <0>         0.0931
     77 H35         6.1795   -3.2980    2.7239 H         1 <0>         0.1103
     78 H36         4.0903   -7.5718    1.9089 H         1 <0>         0.0517
     79 H37         5.8397   -7.8883    1.9975 H         1 <0>         0.0753
     80 H38         4.9392   -7.4481    3.4685 H         1 <0>         0.0833
     81 H39         7.1279   -5.4401    1.2144 H         1 <0>         0.0620
     82 H40         5.9121   -6.1990    0.1588 H         1 <0>         0.0753
     83 H41         5.7454   -4.4884    0.6218 H         1 <0>         0.0727
@<TRIPOS>BOND
     1    1    2 1
     2    1   44 1
     3    1   45 1
     4    1   46 1
     5    2    3 1
     6    2    4 1
     7    2   47 1
     8    3   48 1
     9    3   49 1
    10    3   50 1
    11    4    5 1
    12    4   51 1
    13    4   52 1
    14    5    6 1
    15    5   12 1
    16    5   53 1
    17    6    7 1
    18    6   11 1
    19    6   54 1
    20    7    8 2
    21    7    9 1
    22    9   10 1
    23   10   55 1
    24   10   56 1
    25   10   57 1
    26   11   58 1
    27   12   13 am
    28   12   59 1
    29   13   14 2
    30   13   15 1
    31   15   16 1
    32   15   23 1
    33   15   60 1
    34   16   61 1
    35   16   62 1
    36   16   17 1
    37   17   18 2
    38   17   22 1
    39   18   19 1
    40   18   63 1
    41   19   21 2
    42   20   22 1
    43   21   64 1
    44   21   22 1
    45   23   24 am
    46   23   65 1
    47   24   25 2
    48   24   26 1
    49   26   27 1
    50   26   38 1
    51   26   66 1
    52   27   28 1
    53   27   67 1
    54   27   68 1
    55   28   33 ar
    56   28   29 ar
    57   29   30 ar
    58   29   69 1
    59   30   31 ar
    60   30   70 1
    61   31   32 ar
    62   31   71 1
    63   32   37 ar
    64   32   33 ar
    65   33   34 ar
    66   34   35 ar
    67   34   72 1
    68   35   36 ar
    69   35   73 1
    70   36   37 ar
    71   36   74 1
    72   37   75 1
    73   38   39 1
    74   38   76 1
    75   38   77 1
    76   39   40 2
    77   39   41 am
    78   41   42 1
    79   41   43 1
    80   42   78 1
    81   42   79 1
    82   42   80 1
    83   43   81 1
    84   43   82 1
    85   43   83 1
@<TRIPOS>MOLECULE
CHEMBL350425__23
   83    85     0     0     0
SMALL
USER_CHARGES

@<TRIPOS>ATOM
      1 C1         -1.3810    2.4649   -1.3338 C.3       1 <0>        -0.1465
      2 C2         -1.2106    0.9806   -1.6638 C.3       1 <0>        -0.0959
      3 C3          0.0031    0.7973   -2.5771 C.3       1 <0>        -0.1531
      4 C4         -0.9992    0.1916   -0.3701 C.3       1 <0>        -0.1202
      5 C5         -1.0018   -1.3066   -0.6803 C.3       1 <0>         0.1184
      6 C6         -2.3730   -1.7124   -1.2244 C.3       1 <0>         0.1106
      7 C7         -2.4159   -3.2068   -1.4143 C.2       1 <0>         0.4311
      8 O1         -3.1702   -3.8786   -0.7512 O.2       1 <0>        -0.4936
      9 O2         -1.6162   -3.7915   -2.3200 O.3       1 <0>        -0.3465
     10 C8         -1.7096   -5.2118   -2.4469 C.3       1 <0>         0.0323
     11 O3         -3.3881   -1.3206   -0.2981 O.3       1 <0>        -0.5176
     12 N1         -0.7202   -2.0594    0.5446 N.am      1 <0>        -0.7321
     13 C9          0.5530   -2.3426    0.8838 C.2       1 <0>         0.5169
     14 O4          1.4693   -1.8971    0.2259 O.2       1 <0>        -0.5204
     15 C10         0.8382   -3.2129    2.0807 C.3       1 <0>         0.1455
     16 C11         0.1956   -4.5864    1.8772 C.3       1 <0>        -0.0337
     17 C12         0.2443   -5.3602    3.1695 C.2       1 <0>        -0.0125
     18 C13        -0.8078   -5.9190    3.7974 C.2       1 <0>        -0.0625
     19 N2         -0.3213   -6.5207    4.9265 N.pl3     1 <0>        -0.5786
     20 H1         -0.8378   -7.0084    5.5869 H         1 <0>         0.4125
     21 C14         1.0122   -6.3084    4.9493 C.2       1 <0>         0.1947
     22 N3          1.3440   -5.6179    3.8928 N.2       1 <0>        -0.3983
     23 N4          2.2864   -3.3695    2.2367 N.am      1 <0>        -0.7185
     24 C15         2.8163   -3.5528    3.4623 C.2       1 <0>         0.5407
     25 O5          2.0889   -3.7029    4.4211 O.2       1 <0>        -0.4886
     26 C16         4.3125   -3.5714    3.6412 C.3       1 <0>        -0.0756
     27 C17         4.6496   -3.9893    5.0739 C.3       1 <0>        -0.0786
     28 C18         6.1378   -3.8896    5.2893 C.ar      1 <0>        -0.0604
     29 C19         6.9278   -4.9860    5.1248 C.ar      1 <0>        -0.1170
     30 C20         8.3055   -4.9132    5.3195 C.ar      1 <0>        -0.1120
     31 C21         8.9015   -3.7437    5.6802 C.ar      1 <0>        -0.1137
     32 C22         8.1187   -2.5908    5.8593 C.ar      1 <0>        -0.0496
     33 C23         6.7179   -2.6634    5.6552 C.ar      1 <0>        -0.0477
     34 C24         5.9356   -1.5087    5.8286 C.ar      1 <0>        -0.1042
     35 C25         6.5323   -0.3382    6.1835 C.ar      1 <0>        -0.1189
     36 C26         7.9106   -0.2653    6.3778 C.ar      1 <0>        -0.1156
     37 C27         8.6981   -1.3657    6.2319 C.ar      1 <0>        -0.1091
     38 C28         4.9311   -4.5692    2.6601 C.3       1 <0>        -0.1354
     39 C29         4.3940   -5.9489    2.9411 C.2       1 <0>         0.5036
     40 O6          3.6926   -6.1405    3.9118 O.2       1 <0>        -0.4743
     41 N5          4.6931   -6.9699    2.1137 N.am      1 <0>        -0.6275
     42 C30         4.1709   -8.3112    2.3870 C.3       1 <0>         0.0941
     43 C31         5.5403   -6.7385    0.9412 C.3       1 <0>         0.0802
     44 H2         -1.5316    3.0270   -2.2555 H         1 <0>         0.0565
     45 H3         -2.2457    2.5955   -0.6831 H         1 <0>         0.0560
     46 H4         -0.4871    2.8295   -0.8278 H         1 <0>         0.0547
     47 H5         -2.1045    0.6160   -2.1698 H         1 <0>         0.0727
     48 H6          0.8832    1.2321   -2.1035 H         1 <0>         0.0577
     49 H7          0.1710   -0.2659   -2.7492 H         1 <0>         0.0566
     50 H8         -0.1803    1.2949   -3.5294 H         1 <0>         0.0560
     51 H9         -0.0427    0.4693    0.0727 H         1 <0>         0.0772
     52 H10        -1.8032    0.4191    0.3298 H         1 <0>         0.0769
     53 H11        -0.2363   -1.5248   -1.4249 H         1 <0>         0.1178
     54 H12        -2.5445   -1.2195   -2.1814 H         1 <0>         0.1539
     55 H13        -1.0120   -5.5549   -3.2109 H         1 <0>         0.1049
     56 H14        -1.4627   -5.6788   -1.4935 H         1 <0>         0.0618
     57 H15        -2.7252   -5.4850   -2.7332 H         1 <0>         0.0628
     58 H16        -3.2981   -1.7221    0.5770 H         1 <0>         0.3819
     59 H17        -1.4502   -2.3540    1.1114 H         1 <0>         0.3990
     60 H18         0.4246   -2.7472    2.9753 H         1 <0>         0.1126
     61 H19        -0.8420   -4.4600    1.5683 H         1 <0>         0.0753
     62 H20         0.7403   -5.1317    1.1064 H         1 <0>         0.0742
     63 H21        -1.8376   -5.8966    3.4726 H         1 <0>         0.1627
     64 H22         1.6919   -6.6559    5.7132 H         1 <0>         0.1938
     65 H23         2.8640   -3.3412    1.4578 H         1 <0>         0.3993
     66 H24         4.7138   -2.5764    3.4490 H         1 <0>         0.0948
     67 H25         4.1362   -3.3309    5.7747 H         1 <0>         0.0773
     68 H26         4.3267   -5.0173    5.2381 H         1 <0>         0.1216
     69 H27         6.4799   -5.9264    4.8396 H         1 <0>         0.1180
     70 H28         8.9096   -5.7979    5.1825 H         1 <0>         0.1202
     71 H29         9.9705   -3.7023    5.8283 H         1 <0>         0.1242
     72 H30         4.8666   -1.5499    5.6808 H         1 <0>         0.1279
     73 H31         5.9289    0.5476    6.3161 H         1 <0>         0.1214
     74 H32         8.3591    0.6762    6.6588 H         1 <0>         0.1215
     75 H33         9.7646   -1.2944    6.3866 H         1 <0>         0.1251
     76 H34         4.6767   -4.2811    1.6401 H         1 <0>         0.0866
     77 H35         6.0147   -4.5702    2.7778 H         1 <0>         0.1001
     78 H36         3.2068   -8.4333    1.8932 H         1 <0>         0.0469
     79 H37         4.8699   -9.0572    2.0088 H         1 <0>         0.0621
     80 H38         4.0475   -8.4410    3.4621 H         1 <0>         0.0740
     81 H39         6.5131   -6.3671    1.2635 H         1 <0>         0.0594
     82 H40         5.6706   -7.6738    0.3968 H         1 <0>         0.0745
     83 H41         5.0676   -6.0025    0.2909 H         1 <0>         0.0580
@<TRIPOS>BOND
     1    1    2 1
     2    1   44 1
     3    1   45 1
     4    1   46 1
     5    2    3 1
     6    2    4 1
     7    2   47 1
     8    3   48 1
     9    3   49 1
    10    3   50 1
    11    4    5 1
    12    4   51 1
    13    4   52 1
    14    5    6 1
    15    5   12 1
    16    5   53 1
    17    6    7 1
    18    6   11 1
    19    6   54 1
    20    7    8 2
    21    7    9 1
    22    9   10 1
    23   10   55 1
    24   10   56 1
    25   10   57 1
    26   11   58 1
    27   12   13 am
    28   12   59 1
    29   13   14 2
    30   13   15 1
    31   15   16 1
    32   15   23 1
    33   15   60 1
    34   16   17 1
    35   16   61 1
    36   16   62 1
    37   17   22 1
    38   17   18 2
    39   18   19 1
    40   18   63 1
    41   19   20 1
    42   19   21 1
    43   21   22 2
    44   21   64 1
    45   23   24 am
    46   23   65 1
    47   24   25 2
    48   24   26 1
    49   26   27 1
    50   26   38 1
    51   26   66 1
    52   27   28 1
    53   27   67 1
    54   27   68 1
    55   28   33 ar
    56   28   29 ar
    57   29   30 ar
    58   29   69 1
    59   30   31 ar
    60   30   70 1
    61   31   32 ar
    62   31   71 1
    63   32   37 ar
    64   32   33 ar
    65   33   34 ar
    66   34   35 ar
    67   34   72 1
    68   35   36 ar
    69   35   73 1
    70   36   37 ar
    71   36   74 1
    72   37   75 1
    73   38   39 1
    74   38   76 1
    75   38   77 1
    76   39   40 2
    77   39   41 am
    78   41   42 1
    79   41   43 1
    80   42   78 1
    81   42   79 1
    82   42   80 1
    83   43   81 1
    84   43   82 1
    85   43   83 1
@<TRIPOS>MOLECULE
CHEMBL350425__24
   84    86     0     0     0
SMALL
USER_CHARGES

@<TRIPOS>ATOM
      1 C1          0.5027    1.4448    0.6325 C.3       1 <0>        -0.1510
      2 C2          0.7159   -0.0655    0.7539 C.3       1 <0>        -0.0885
      3 C3          1.7515   -0.3483    1.8441 C.3       1 <0>        -0.1431
      4 C4         -0.6078   -0.7395    1.1206 C.3       1 <0>        -0.1235
      5 C5         -0.4240   -2.2584    1.1200 C.3       1 <0>         0.1181
      6 C6         -1.7106   -2.9280    1.6069 C.3       1 <0>         0.1109
      7 C7         -1.5296   -4.4241    1.6062 C.2       1 <0>         0.4313
      8 O1         -2.1882   -5.1120    0.8626 O.2       1 <0>        -0.4962
      9 O2         -0.6367   -4.9925    2.4317 O.3       1 <0>        -0.3453
     10 C8         -0.5175   -6.4155    2.3779 C.3       1 <0>         0.0327
     11 O3         -2.7885   -2.5783    0.7363 O.3       1 <0>        -0.5133
     12 N1         -0.1211   -2.7131   -0.2394 N.am      1 <0>        -0.7236
     13 C9          1.1486   -2.6889   -0.6908 C.2       1 <0>         0.5127
     14 O4          2.0404   -2.2908    0.0283 O.2       1 <0>        -0.4942
     15 C10         1.4602   -3.1566   -2.0891 C.3       1 <0>         0.1288
     16 C11         1.0411   -4.6200   -2.2426 C.3       1 <0>        -0.0706
     17 C12         1.2385   -5.0517   -3.6729 C.2       1 <0>         0.0426
     18 C13         0.3646   -4.8719   -4.6816 C.2       1 <0>         0.0569
     19 N2          0.9376   -5.4092   -5.8026 N.pl3     1 <0>        -0.4984
     20 H1          0.5504   -5.4336   -6.6917 H         1 <0>         0.4667
     21 C14         2.1427   -5.8988   -5.4397 C.cat     1 <0>         0.3077
     22 N3          2.3180   -5.6770   -4.1657 N.pl3     1 <0>        -0.4739
     23 N4          2.8988   -3.0321   -2.3365 N.am      1 <0>        -0.7170
     24 C15         3.3566   -2.8963   -3.5968 C.2       1 <0>         0.5215
     25 O5          2.5776   -2.8773   -4.5262 O.2       1 <0>        -0.5219
     26 C16         4.8364   -2.7682   -3.8513 C.3       1 <0>        -0.0926
     27 C17         5.0852   -2.6279   -5.3544 C.3       1 <0>        -0.0584
     28 C18         4.4457   -1.3577   -5.8530 C.ar      1 <0>        -0.0806
     29 C19         3.2556   -1.4039   -6.5123 C.ar      1 <0>        -0.0772
     30 C20         2.6493   -0.2401   -6.9806 C.ar      1 <0>        -0.1269
     31 C21         3.2295    0.9769   -6.7927 C.ar      1 <0>        -0.1013
     32 C22         4.4580    1.0643   -6.1166 C.ar      1 <0>        -0.0558
     33 C23         5.0718   -0.1190   -5.6347 C.ar      1 <0>        -0.0446
     34 C24         6.2979   -0.0308   -4.9532 C.ar      1 <0>        -0.1200
     35 C25         6.8749    1.1865   -4.7603 C.ar      1 <0>        -0.1128
     36 C26         6.2681    2.3507   -5.2284 C.ar      1 <0>        -0.1146
     37 C27         5.0877    2.3028   -5.9041 C.ar      1 <0>        -0.1091
     38 C28         5.5534   -4.0152   -3.3299 C.3       1 <0>        -0.1366
     39 C29         7.0439   -3.8128   -3.4213 C.2       1 <0>         0.5126
     40 O6          7.4890   -2.7981   -3.9145 O.2       1 <0>        -0.5214
     41 N5          7.8824   -4.7593   -2.9549 N.am      1 <0>        -0.6178
     42 C30         9.3270   -4.5160   -2.9415 C.3       1 <0>         0.0782
     43 C31         7.3492   -6.0314   -2.4613 C.3       1 <0>         0.0726
     44 H2          1.4458    1.9249    0.3713 H         1 <0>         0.0544
     45 H3         -0.2350    1.6463   -0.1441 H         1 <0>         0.0512
     46 H4          0.1456    1.8389    1.5839 H         1 <0>         0.0566
     47 H5          1.0730   -0.4596   -0.1975 H         1 <0>         0.0681
     48 H6          1.9033   -1.4242    1.9306 H         1 <0>         0.0688
     49 H7          2.6945    0.1319    1.5828 H         1 <0>         0.0498
     50 H8          1.3944    0.0458    2.7955 H         1 <0>         0.0471
     51 H9         -0.9199   -0.4117    2.1122 H         1 <0>         0.0837
     52 H10        -1.3695   -0.4654    0.3908 H         1 <0>         0.0768
     53 H11         0.3982   -2.5252    1.7840 H         1 <0>         0.1217
     54 H12        -1.9360   -2.5897    2.6182 H         1 <0>         0.1584
     55 H13        -1.4766   -6.8700    2.6262 H         1 <0>         0.0659
     56 H14        -0.2214   -6.7176    1.3734 H         1 <0>         0.0577
     57 H15         0.2364   -6.7442    3.0932 H         1 <0>         0.1076
     58 H16        -2.6559   -2.8492   -0.1824 H         1 <0>         0.3776
     59 H17        -0.8343   -3.0315   -0.8145 H         1 <0>         0.3972
     60 H18         0.9138   -2.5449   -2.8070 H         1 <0>         0.1286
     61 H19         1.6503   -5.2431   -1.5877 H         1 <0>         0.1049
     62 H20        -0.0094   -4.7274   -1.9724 H         1 <0>         0.1222
     63 H21        -0.6027   -4.3958   -4.6182 H         1 <0>         0.2221
     64 H22         2.8465   -6.3891   -6.0960 H         1 <0>         0.2614
     65 H23         3.5218   -3.0473   -1.5932 H         1 <0>         0.4158
     66 H24         5.2188   -1.8871   -3.3359 H         1 <0>         0.1185
     67 H25         6.1581   -2.5930   -5.5434 H         1 <0>         0.1028
     68 H26         4.6520   -3.4817   -5.8756 H         1 <0>         0.0667
     69 H27         2.7744   -2.3570   -6.6751 H         1 <0>         0.1176
     70 H28         1.7049   -0.3046   -7.5006 H         1 <0>         0.1167
     71 H29         2.7482    1.8705   -7.1618 H         1 <0>         0.1241
     72 H30         6.7793   -0.9243   -4.5842 H         1 <0>         0.1490
     73 H31         7.8170    1.2515   -4.2363 H         1 <0>         0.1220
     74 H32         6.7471    3.3042   -5.0617 H         1 <0>         0.1234
     75 H33         4.6296    3.2131   -6.2618 H         1 <0>         0.1261
     76 H34         5.2732   -4.1877   -2.2907 H         1 <0>         0.1002
     77 H35         5.2663   -4.8776   -3.9315 H         1 <0>         0.0897
     78 H36         9.6224   -4.1360   -1.9635 H         1 <0>         0.0610
     79 H37         9.8543   -5.4484   -3.1434 H         1 <0>         0.0727
     80 H38         9.5791   -3.7828   -3.7076 H         1 <0>         0.0853
     81 H39         6.2628   -6.0288   -2.5496 H         1 <0>         0.0700
     82 H40         7.7597   -6.8509   -3.0513 H         1 <0>         0.0690
     83 H41         7.6284   -6.1612   -1.4157 H         1 <0>         0.0696
     84 H42         3.1041   -5.9266   -3.6552 H         1 <0>         0.4553
@<TRIPOS>BOND
     1    1    2 1
     2    1   44 1
     3    1   45 1
     4    1   46 1
     5    2    3 1
     6    2    4 1
     7    2   47 1
     8    3   48 1
     9    3   49 1
    10    3   50 1
    11    4    5 1
    12    4   51 1
    13    4   52 1
    14    5    6 1
    15    5   12 1
    16    5   53 1
    17    6    7 1
    18    6   11 1
    19    6   54 1
    20    7    8 2
    21    7    9 1
    22    9   10 1
    23   10   55 1
    24   10   56 1
    25   10   57 1
    26   11   58 1
    27   12   13 am
    28   12   59 1
    29   13   14 2
    30   13   15 1
    31   15   16 1
    32   15   23 1
    33   15   60 1
    34   16   17 1
    35   16   61 1
    36   16   62 1
    37   17   22 1
    38   17   18 2
    39   18   19 1
    40   18   63 1
    41   19   20 1
    42   19   21 1
    43   21   22 2
    44   21   64 1
    45   22   84 1
    46   23   24 am
    47   23   65 1
    48   24   25 2
    49   24   26 1
    50   26   27 1
    51   26   38 1
    52   26   66 1
    53   27   28 1
    54   27   67 1
    55   27   68 1
    56   28   33 ar
    57   28   29 ar
    58   29   30 ar
    59   29   69 1
    60   30   31 ar
    61   30   70 1
    62   31   32 ar
    63   31   71 1
    64   32   37 ar
    65   32   33 ar
    66   33   34 ar
    67   34   35 ar
    68   34   72 1
    69   35   36 ar
    70   35   73 1
    71   36   37 ar
    72   36   74 1
    73   37   75 1
    74   38   39 1
    75   38   76 1
    76   38   77 1
    77   39   40 2
    78   39   41 am
    79   41   42 1
    80   41   43 1
    81   42   78 1
    82   42   79 1
    83   42   80 1
    84   43   81 1
    85   43   82 1
    86   43   83 1
@<TRIPOS>MOLECULE
CHEMBL350425__25
   83    85     0     0     0
SMALL
USER_CHARGES

@<TRIPOS>ATOM
      1 C1          0.4742    1.4215    0.6342 C.3       1 <0>        -0.1487
      2 C2          0.7054   -0.0850    0.7676 C.3       1 <0>        -0.0914
      3 C3          1.7544   -0.3461    1.8503 C.3       1 <0>        -0.1410
      4 C4         -0.6071   -0.7702    1.1532 C.3       1 <0>        -0.1209
      5 C5         -0.4064   -2.2870    1.1649 C.3       1 <0>         0.1179
      6 C6         -1.6808   -2.9662    1.6704 C.3       1 <0>         0.1122
      7 C7         -1.4831   -4.4601    1.6819 C.2       1 <0>         0.4310
      8 O1         -2.1410   -5.1622    0.9512 O.2       1 <0>        -0.4946
      9 O2         -0.5760   -5.0107    2.5040 O.3       1 <0>        -0.3463
     10 C8         -0.4415   -6.4328    2.4624 C.3       1 <0>         0.0324
     11 O3         -2.7707   -2.6366    0.8070 O.3       1 <0>        -0.5177
     12 N1         -0.1114   -2.7510   -0.1929 N.am      1 <0>        -0.7279
     13 C9          1.1536   -2.7170   -0.6567 C.2       1 <0>         0.5159
     14 O4          2.0477   -2.3022    0.0500 O.2       1 <0>        -0.5048
     15 C10         1.4571   -3.1943   -2.0536 C.3       1 <0>         0.1378
     16 C11         1.0530   -4.6637   -2.1895 C.3       1 <0>        -0.0499
     17 C12         1.2416   -5.1066   -3.6175 C.2       1 <0>        -0.0141
     18 C13         2.3825   -5.5554   -4.1748 C.2       1 <0>        -0.0036
     19 N2          2.1304   -5.8457   -5.4598 N.2       1 <0>        -0.4836
     20 H1         -0.6442   -4.8734   -4.5005 H         1 <0>         0.4146
     21 C14         0.8767   -5.5938   -5.7200 C.2       1 <0>         0.1925
     22 N3          0.2848   -5.1356   -4.5959 N.pl3     1 <0>        -0.5591
     23 N4          2.8918   -3.0562   -2.3159 N.am      1 <0>        -0.7175
     24 C15         3.3361   -2.9273   -3.5818 C.2       1 <0>         0.5241
     25 O5          2.5481   -2.9256   -4.5038 O.2       1 <0>        -0.4987
     26 C16         4.8119   -2.7852   -3.8516 C.3       1 <0>        -0.0814
     27 C17         5.0447   -2.6563   -5.3583 C.3       1 <0>        -0.0635
     28 C18         4.3857   -1.3984   -5.8627 C.ar      1 <0>        -0.0702
     29 C19         3.1908   -1.4648   -6.5114 C.ar      1 <0>        -0.0750
     30 C20         2.5664   -0.3127   -6.9847 C.ar      1 <0>        -0.1183
     31 C21         3.1334    0.9128   -6.8127 C.ar      1 <0>        -0.1148
     32 C22         4.3664    1.0212   -6.1479 C.ar      1 <0>        -0.0568
     33 C23         4.9986   -0.1503   -5.6608 C.ar      1 <0>        -0.0454
     34 C24         6.2291   -0.0412   -4.9906 C.ar      1 <0>        -0.1112
     35 C25         6.7930    1.1847   -4.8134 C.ar      1 <0>        -0.1232
     36 C26         6.1682    2.3372   -5.2866 C.ar      1 <0>        -0.1195
     37 C27         4.9828    2.2690   -5.9518 C.ar      1 <0>        -0.1123
     38 C28         5.5477   -4.0192   -3.3256 C.3       1 <0>        -0.1366
     39 C29         7.0349   -3.8002   -3.4312 C.2       1 <0>         0.5174
     40 O6          7.4640   -2.7818   -3.9309 O.2       1 <0>        -0.5302
     41 N5          7.8883   -4.7361   -2.9704 N.am      1 <0>        -0.6210
     42 C30         9.3302   -4.4771   -2.9719 C.3       1 <0>         0.0812
     43 C31         7.3739   -6.0125   -2.4679 C.3       1 <0>         0.0740
     44 H2          1.4092    1.9097    0.3594 H         1 <0>         0.0538
     45 H3         -0.2731    1.6075   -0.1372 H         1 <0>         0.0502
     46 H4          0.1218    1.8206    1.5853 H         1 <0>         0.0536
     47 H5          1.0578   -0.4841   -0.1835 H         1 <0>         0.0726
     48 H6          1.4019    0.0530    2.8014 H         1 <0>         0.0433
     49 H7          1.9191   -1.4194    1.9454 H         1 <0>         0.0708
     50 H8          2.6894    0.1420    1.5756 H         1 <0>         0.0492
     51 H9         -0.9135   -0.4366    2.1447 H         1 <0>         0.0794
     52 H10        -1.3788   -0.5114    0.4282 H         1 <0>         0.0745
     53 H11         0.4250   -2.5383    1.8235 H         1 <0>         0.1193
     54 H12        -1.9003   -2.6209    2.6807 H         1 <0>         0.1552
     55 H13         0.3228   -6.7464    3.1735 H         1 <0>         0.1063
     56 H14        -1.3930   -6.8956    2.7241 H         1 <0>         0.0632
     57 H15        -0.1516   -6.7410    1.4579 H         1 <0>         0.0614
     58 H16        -2.6438   -2.9147   -0.1104 H         1 <0>         0.3801
     59 H17        -0.8264   -3.0827   -0.7582 H         1 <0>         0.3965
     60 H18         0.8971   -2.5956   -2.7719 H         1 <0>         0.1138
     61 H19         1.6753   -5.2738   -1.5347 H         1 <0>         0.0934
     62 H20         0.0064   -4.7802   -1.9081 H         1 <0>         0.0788
     63 H21         3.3337   -5.6628   -3.6747 H         1 <0>         0.1523
     64 H22         0.3919   -5.7321   -6.6751 H         1 <0>         0.2014
     65 H23         3.5220   -3.0575   -1.5785 H         1 <0>         0.4070
     66 H24         5.1892   -1.8951   -3.3482 H         1 <0>         0.1052
     67 H25         6.1153   -2.6107   -5.5579 H         1 <0>         0.0953
     68 H26         4.6167   -3.5199   -5.8673 H         1 <0>         0.0805
     69 H27         2.7198   -2.4251   -6.6616 H         1 <0>         0.1290
     70 H28         1.6185   -0.3932   -7.4961 H         1 <0>         0.1154
     71 H29         2.6382    1.7972   -7.1856 H         1 <0>         0.1198
     72 H30         6.7245   -0.9255   -4.6178 H         1 <0>         0.1508
     73 H31         7.7386    1.2657   -4.2981 H         1 <0>         0.1182
     74 H32         6.6370    3.2979   -5.1325 H         1 <0>         0.1181
     75 H33         4.5107    3.1704   -6.3136 H         1 <0>         0.1215
     76 H34         5.2781   -4.1858   -2.2827 H         1 <0>         0.0972
     77 H35         5.2657   -4.8900   -3.9173 H         1 <0>         0.1055
     78 H36         9.6310   -4.0908   -1.9981 H         1 <0>         0.0559
     79 H37         9.8657   -5.4042   -3.1762 H         1 <0>         0.0684
     80 H38         9.5667   -3.7435   -3.7427 H         1 <0>         0.0823
     81 H39         7.3172   -6.7292   -3.2871 H         1 <0>         0.0613
     82 H40         8.0420   -6.3949   -1.6962 H         1 <0>         0.0746
     83 H41         6.3798   -5.8631   -2.0465 H         1 <0>         0.0732
@<TRIPOS>BOND
     1    1    2 1
     2    1   44 1
     3    1   45 1
     4    1   46 1
     5    2    3 1
     6    2    4 1
     7    2   47 1
     8    3   48 1
     9    3   49 1
    10    3   50 1
    11    4    5 1
    12    4   51 1
    13    4   52 1
    14    5    6 1
    15    5   12 1
    16    5   53 1
    17    6    7 1
    18    6   11 1
    19    6   54 1
    20    7    8 2
    21    7    9 1
    22    9   10 1
    23   10   55 1
    24   10   56 1
    25   10   57 1
    26   11   58 1
    27   12   13 am
    28   12   59 1
    29   13   14 2
    30   13   15 1
    31   15   16 1
    32   15   23 1
    33   15   60 1
    34   16   61 1
    35   16   62 1
    36   16   17 1
    37   17   18 2
    38   17   22 1
    39   18   19 1
    40   18   63 1
    41   19   21 2
    42   20   22 1
    43   21   64 1
    44   21   22 1
    45   23   24 am
    46   23   65 1
    47   24   25 2
    48   24   26 1
    49   26   27 1
    50   26   38 1
    51   26   66 1
    52   27   28 1
    53   27   67 1
    54   27   68 1
    55   28   33 ar
    56   28   29 ar
    57   29   30 ar
    58   29   69 1
    59   30   31 ar
    60   30   70 1
    61   31   32 ar
    62   31   71 1
    63   32   37 ar
    64   32   33 ar
    65   33   34 ar
    66   34   35 ar
    67   34   72 1
    68   35   36 ar
    69   35   73 1
    70   36   37 ar
    71   36   74 1
    72   37   75 1
    73   38   39 1
    74   38   76 1
    75   38   77 1
    76   39   40 2
    77   39   41 am
    78   41   42 1
    79   41   43 1
    80   42   78 1
    81   42   79 1
    82   42   80 1
    83   43   81 1
    84   43   82 1
    85   43   83 1
@<TRIPOS>MOLECULE
CHEMBL350425__26
   83    85     0     0     0
SMALL
USER_CHARGES

@<TRIPOS>ATOM
      1 C1          0.4982    1.4187    0.6459 C.3       1 <0>        -0.1483
      2 C2          0.7177   -0.0907    0.7659 C.3       1 <0>        -0.0915
      3 C3          1.7591   -0.3699    1.8516 C.3       1 <0>        -0.1401
      4 C4         -0.6017   -0.7700    1.1382 C.3       1 <0>        -0.1207
      5 C5         -0.4121   -2.2882    1.1363 C.3       1 <0>         0.1180
      6 C6         -1.6940   -2.9628    1.6285 C.3       1 <0>         0.1127
      7 C7         -1.5073   -4.4582    1.6267 C.2       1 <0>         0.4306
      8 O1         -2.1664   -5.1485    0.8857 O.2       1 <0>        -0.4925
      9 O2         -0.6086   -5.0234    2.4481 O.3       1 <0>        -0.3472
     10 C8         -0.4842   -6.4459    2.3934 C.3       1 <0>         0.0326
     11 O3         -2.7770   -2.6170    0.7627 O.3       1 <0>        -0.5188
     12 N1         -0.1133   -2.7413   -0.2245 N.am      1 <0>        -0.7276
     13 C9          1.1543   -2.7121   -0.6814 C.2       1 <0>         0.5162
     14 O4          2.0477   -2.3107    0.0340 O.2       1 <0>        -0.5127
     15 C10         1.4617   -3.1782   -2.0811 C.3       1 <0>         0.1406
     16 C11         1.0476   -4.6432   -2.2333 C.3       1 <0>        -0.0380
     17 C12         1.2405   -5.0737   -3.6646 C.2       1 <0>         0.0140
     18 C13         1.9637   -6.1299   -4.0826 C.2       1 <0>        -0.0607
     19 N2          1.8720   -6.1572   -5.4481 N.pl3     1 <0>        -0.5714
     20 H1          2.2873   -6.8038   -6.0401 H         1 <0>         0.4160
     21 C14         1.0953   -5.1160   -5.8172 C.2       1 <0>         0.1950
     22 N3          0.7172   -4.4754   -4.7449 N.2       1 <0>        -0.4482
     23 N4          2.8987   -3.0480   -2.3347 N.am      1 <0>        -0.7160
     24 C15         3.3505   -2.9102   -3.5969 C.2       1 <0>         0.5146
     25 O5          2.5674   -2.8939   -4.5229 O.2       1 <0>        -0.4860
     26 C16         4.8287   -2.7763   -3.8577 C.3       1 <0>        -0.0845
     27 C17         5.0704   -2.6347   -5.3619 C.3       1 <0>        -0.0590
     28 C18         4.4238   -1.3669   -5.8574 C.ar      1 <0>        -0.0742
     29 C19         3.2313   -1.4176   -6.5119 C.ar      1 <0>        -0.0711
     30 C20         2.6183   -0.2561   -6.9772 C.ar      1 <0>        -0.1160
     31 C21         3.1944    0.9631   -6.7912 C.ar      1 <0>        -0.1139
     32 C22         4.4252    1.0553   -6.1200 C.ar      1 <0>        -0.0567
     33 C23         5.0458   -0.1257   -5.6411 C.ar      1 <0>        -0.0448
     34 C24         6.2742   -0.0328   -4.9646 C.ar      1 <0>        -0.1123
     35 C25         6.8471    1.1868   -4.7735 C.ar      1 <0>        -0.1231
     36 C26         6.2337    2.3487   -5.2387 C.ar      1 <0>        -0.1202
     37 C27         5.0508    2.2962   -5.9097 C.ar      1 <0>        -0.1114
     38 C28         5.5527   -4.0207   -3.3398 C.3       1 <0>        -0.1298
     39 C29         7.0421   -3.8124   -3.4374 C.2       1 <0>         0.5157
     40 O6          7.4811   -2.7955   -3.9314 O.2       1 <0>        -0.5291
     41 N5          7.8862   -4.7562   -2.9757 N.am      1 <0>        -0.6220
     42 C30         9.3299   -4.5078   -2.9691 C.3       1 <0>         0.0806
     43 C31         7.3600   -6.0306   -2.4804 C.3       1 <0>         0.0776
     44 H2          1.4383    1.9026    0.3807 H         1 <0>         0.0529
     45 H3         -0.2436    1.6176   -0.1275 H         1 <0>         0.0507
     46 H4          0.1437    1.8112    1.5990 H         1 <0>         0.0528
     47 H5          1.0723   -0.4832   -0.1871 H         1 <0>         0.0740
     48 H6          1.4046    0.0226    2.8046 H         1 <0>         0.0422
     49 H7          1.9155   -1.4452    1.9371 H         1 <0>         0.0710
     50 H8          2.6991    0.1140    1.5864 H         1 <0>         0.0480
     51 H9         -0.9109   -0.4436    2.1312 H         1 <0>         0.0780
     52 H10        -1.3677   -0.4986    0.4117 H         1 <0>         0.0751
     53 H11         0.4140   -2.5520    1.7967 H         1 <0>         0.1176
     54 H12        -1.9163   -2.6257    2.6410 H         1 <0>         0.1538
     55 H13         0.2740   -6.7719    3.1054 H         1 <0>         0.1048
     56 H14        -1.4404   -6.9042    2.6457 H         1 <0>         0.0626
     57 H15        -0.1913   -6.7466    1.3875 H         1 <0>         0.0614
     58 H16        -2.6473   -2.8872   -0.1566 H         1 <0>         0.3825
     59 H17        -0.8278   -3.0623   -0.7966 H         1 <0>         0.3992
     60 H18         0.9098   -2.5684   -2.7965 H         1 <0>         0.1237
     61 H19         1.6619   -5.2640   -1.5812 H         1 <0>         0.0773
     62 H20        -0.0013   -4.7547   -1.9586 H         1 <0>         0.0812
     63 H21         2.5112   -6.8222   -3.4602 H         1 <0>         0.1643
     64 H22         0.8279   -4.8585   -6.8314 H         1 <0>         0.1987
     65 H23         3.5250   -3.0611   -1.5941 H         1 <0>         0.4031
     66 H24         5.2099   -1.8939   -3.3438 H         1 <0>         0.1043
     67 H25         6.1424   -2.5955   -5.5555 H         1 <0>         0.0941
     68 H26         4.6384   -3.4900   -5.8814 H         1 <0>         0.0703
     69 H27         2.7533   -2.3726   -6.6732 H         1 <0>         0.1284
     70 H28         1.6721   -0.3242   -7.4935 H         1 <0>         0.1175
     71 H29         2.7080    1.8549   -7.1581 H         1 <0>         0.1203
     72 H30         6.7608   -0.9245   -4.5979 H         1 <0>         0.1495
     73 H31         7.7910    1.2554   -4.2533 H         1 <0>         0.1177
     74 H32         6.7095    3.3041   -5.0735 H         1 <0>         0.1180
     75 H33         4.5875    3.2048   -6.2651 H         1 <0>         0.1219
     76 H34         5.2775   -4.1946   -2.2996 H         1 <0>         0.0969
     77 H35         5.2665   -4.8840   -3.9405 H         1 <0>         0.0982
     78 H36         9.6288   -4.1277   -1.9922 H         1 <0>         0.0563
     79 H37         9.8596   -5.4380   -3.1746 H         1 <0>         0.0682
     80 H38         9.5756   -3.7728   -3.7357 H         1 <0>         0.0822
     81 H39         6.8142   -6.5333   -3.2789 H         1 <0>         0.0613
     82 H40         8.1858   -6.6615   -2.1516 H         1 <0>         0.0801
     83 H41         6.6884   -5.8452   -1.6421 H         1 <0>         0.0636
@<TRIPOS>BOND
     1    1    2 1
     2    1   44 1
     3    1   45 1
     4    1   46 1
     5    2    3 1
     6    2    4 1
     7    2   47 1
     8    3   48 1
     9    3   49 1
    10    3   50 1
    11    4    5 1
    12    4   51 1
    13    4   52 1
    14    5    6 1
    15    5   12 1
    16    5   53 1
    17    6    7 1
    18    6   11 1
    19    6   54 1
    20    7    8 2
    21    7    9 1
    22    9   10 1
    23   10   55 1
    24   10   56 1
    25   10   57 1
    26   11   58 1
    27   12   13 am
    28   12   59 1
    29   13   14 2
    30   13   15 1
    31   15   16 1
    32   15   23 1
    33   15   60 1
    34   16   17 1
    35   16   61 1
    36   16   62 1
    37   17   22 1
    38   17   18 2
    39   18   19 1
    40   18   63 1
    41   19   20 1
    42   19   21 1
    43   21   22 2
    44   21   64 1
    45   23   24 am
    46   23   65 1
    47   24   25 2
    48   24   26 1
    49   26   27 1
    50   26   38 1
    51   26   66 1
    52   27   28 1
    53   27   67 1
    54   27   68 1
    55   28   33 ar
    56   28   29 ar
    57   29   30 ar
    58   29   69 1
    59   30   31 ar
    60   30   70 1
    61   31   32 ar
    62   31   71 1
    63   32   37 ar
    64   32   33 ar
    65   33   34 ar
    66   34   35 ar
    67   34   72 1
    68   35   36 ar
    69   35   73 1
    70   36   37 ar
    71   36   74 1
    72   37   75 1
    73   38   39 1
    74   38   76 1
    75   38   77 1
    76   39   40 2
    77   39   41 am
    78   41   42 1
    79   41   43 1
    80   42   78 1
    81   42   79 1
    82   42   80 1
    83   43   81 1
    84   43   82 1
    85   43   83 1
@<TRIPOS>MOLECULE
CHEMBL350425__27
   84    86     0     0     0
SMALL
USER_CHARGES

@<TRIPOS>ATOM
      1 C1         -0.0867    1.5266   -0.0605 C.3       1 <0>        -0.1493
      2 C2         -0.0585   -0.0031   -0.0664 C.3       1 <0>        -0.0881
      3 C3          0.6673   -0.5046    1.1836 C.3       1 <0>        -0.1415
      4 C4         -1.4913   -0.5396   -0.0739 C.3       1 <0>        -0.1236
      5 C5         -1.4646   -2.0637   -0.2054 C.3       1 <0>         0.1183
      6 C6         -2.8885   -2.6109   -0.0878 C.3       1 <0>         0.1109
      7 C7         -2.8622   -4.1121   -0.2174 C.2       1 <0>         0.4310
      8 O1         -3.3988   -4.6467   -1.1587 O.2       1 <0>        -0.4957
      9 O2         -2.2425   -4.8552    0.7129 O.3       1 <0>        -0.3455
     10 C8         -2.2566   -6.2720    0.5266 C.3       1 <0>         0.0326
     11 O3         -3.6989   -2.0573   -1.1265 O.3       1 <0>        -0.5137
     12 N1         -0.9062   -2.4316   -1.5089 N.am      1 <0>        -0.7240
     13 C9          0.4289   -2.5236   -1.6684 C.2       1 <0>         0.5147
     14 O4          1.1681   -2.3019   -0.7328 O.2       1 <0>        -0.4967
     15 C10         1.0033   -2.9021   -3.0092 C.3       1 <0>         0.1316
     16 C11         0.4867   -4.2843   -3.4136 C.3       1 <0>        -0.0709
     17 C12         0.9614   -4.6103   -4.8063 C.2       1 <0>         0.0454
     18 C13         0.3632   -4.2377   -5.9538 C.2       1 <0>         0.0548
     19 N2          1.1205   -4.7410   -6.9769 N.pl3     1 <0>        -0.4984
     20 H1          0.9461   -4.6402   -7.9257 H         1 <0>         0.4658
     21 C14         2.1560   -5.4042   -6.4185 C.cat     1 <0>         0.3078
     22 N3          2.0570   -5.3175   -5.1201 N.pl3     1 <0>        -0.4718
     23 N4          2.4655   -2.9333   -2.9229 N.am      1 <0>        -0.7210
     24 C15         3.2101   -2.7451   -4.0304 C.2       1 <0>         0.5314
     25 O5          2.6713   -2.6271   -5.1105 O.2       1 <0>        -0.5215
     26 C16         4.7122   -2.6814   -3.9267 C.3       1 <0>        -0.0839
     27 C17         5.3044   -2.3482   -5.2975 C.3       1 <0>        -0.0638
     28 C18         6.8084   -2.4051   -5.2222 C.ar      1 <0>        -0.0811
     29 C19         7.5254   -1.2708   -4.9932 C.ar      1 <0>        -0.1059
     30 C20         8.9164   -1.3038   -4.9204 C.ar      1 <0>        -0.1132
     31 C21         9.5989   -2.4712   -5.0764 C.ar      1 <0>        -0.1009
     32 C22         8.8931   -3.6626   -5.3142 C.ar      1 <0>        -0.0506
     33 C23         7.4777   -3.6301   -5.3822 C.ar      1 <0>        -0.0433
     34 C24         6.7715   -4.8229   -5.6142 C.ar      1 <0>        -0.1191
     35 C25         7.4536   -5.9909   -5.7643 C.ar      1 <0>        -0.1103
     36 C26         8.8451   -6.0239   -5.6910 C.ar      1 <0>        -0.1201
     37 C27         9.5629   -4.8869   -5.4810 C.ar      1 <0>        -0.0954
     38 C28         5.1085   -1.5971   -2.9226 C.3       1 <0>        -0.1446
     39 C29         4.4648   -0.2916   -3.3130 C.2       1 <0>         0.5087
     40 O6          3.8295   -0.2128   -4.3431 O.2       1 <0>        -0.5252
     41 N5          4.5952    0.7885   -2.5174 N.am      1 <0>        -0.6144
     42 C30         3.9695    2.0576   -2.8969 C.3       1 <0>         0.0840
     43 C31         5.3626    0.6933   -1.2731 C.3       1 <0>         0.0699
     44 H2          0.9340    1.9088   -0.0552 H         1 <0>         0.0525
     45 H3         -0.6038    1.8838   -0.9511 H         1 <0>         0.0509
     46 H4         -0.6105    1.8769    0.8289 H         1 <0>         0.0564
     47 H5          0.4653   -0.3535   -0.9558 H         1 <0>         0.0682
     48 H6          0.6874   -1.5944    1.1795 H         1 <0>         0.0692
     49 H7          1.6881   -0.1224    1.1890 H         1 <0>         0.0481
     50 H8          0.1435   -0.1543    2.0730 H         1 <0>         0.0466
     51 H9         -1.9874   -0.2640    0.8568 H         1 <0>         0.0834
     52 H10        -2.0351   -0.1118   -0.9161 H         1 <0>         0.0766
     53 H11        -0.8465   -2.4860    0.5869 H         1 <0>         0.1214
     54 H12        -3.3040   -2.3372    0.8820 H         1 <0>         0.1582
     55 H13        -3.2875   -6.6257    0.5081 H         1 <0>         0.0659
     56 H14        -1.7706   -6.5192   -0.4172 H         1 <0>         0.0580
     57 H15        -1.7226   -6.7516    1.3469 H         1 <0>         0.1076
     58 H16        -3.3876   -2.2612   -2.0191 H         1 <0>         0.3779
     59 H17        -1.4974   -2.6090   -2.2572 H         1 <0>         0.3973
     60 H18         0.6990   -2.1679   -3.7552 H         1 <0>         0.1262
     61 H19         0.8650   -5.0319   -2.7165 H         1 <0>         0.1044
     62 H20        -0.6031   -4.2855   -3.3916 H         1 <0>         0.1205
     63 H21        -0.5407   -3.6542   -6.0486 H         1 <0>         0.2209
     64 H22         2.9385   -5.9177   -6.9572 H         1 <0>         0.2603
     65 H23         2.8977   -3.0895   -2.0687 H         1 <0>         0.4134
     66 H24         5.0943   -3.6452   -3.5903 H         1 <0>         0.1038
     67 H25         4.9498   -3.0712   -6.0320 H         1 <0>         0.0756
     68 H26         4.9931   -1.3465   -5.5940 H         1 <0>         0.1059
     69 H27         7.0083   -0.3311   -4.8666 H         1 <0>         0.1187
     70 H28         9.4614   -0.3894   -4.7377 H         1 <0>         0.1263
     71 H29        10.6773   -2.4816   -5.0181 H         1 <0>         0.1304
     72 H30         5.6931   -4.8127   -5.6727 H         1 <0>         0.1153
     73 H31         6.9084   -6.9060   -5.9425 H         1 <0>         0.1208
     74 H32         9.3619   -6.9643   -5.8133 H         1 <0>         0.1257
     75 H33        10.6408   -4.9276   -5.4274 H         1 <0>         0.1303
     76 H34         4.7725   -1.8842   -1.9262 H         1 <0>         0.0989
     77 H35         6.1923   -1.4818   -2.9213 H         1 <0>         0.1133
     78 H36         2.9612    2.1029   -2.4854 H         1 <0>         0.0555
     79 H37         4.5598    2.8855   -2.5040 H         1 <0>         0.0730
     80 H38         3.9220    2.1287   -3.9835 H         1 <0>         0.0776
     81 H39         5.7490   -0.3197   -1.1611 H         1 <0>         0.0784
     82 H40         6.1938    1.3978   -1.3041 H         1 <0>         0.0683
     83 H41         4.7161    0.9311   -0.4284 H         1 <0>         0.0677
     84 H42         2.6769   -5.7051   -4.4826 H         1 <0>         0.4572
@<TRIPOS>BOND
     1    1    2 1
     2    1   44 1
     3    1   45 1
     4    1   46 1
     5    2    3 1
     6    2    4 1
     7    2   47 1
     8    3   48 1
     9    3   49 1
    10    3   50 1
    11    4    5 1
    12    4   51 1
    13    4   52 1
    14    5    6 1
    15    5   12 1
    16    5   53 1
    17    6    7 1
    18    6   11 1
    19    6   54 1
    20    7    8 2
    21    7    9 1
    22    9   10 1
    23   10   55 1
    24   10   56 1
    25   10   57 1
    26   11   58 1
    27   12   13 am
    28   12   59 1
    29   13   14 2
    30   13   15 1
    31   15   16 1
    32   15   23 1
    33   15   60 1
    34   16   17 1
    35   16   61 1
    36   16   62 1
    37   17   22 1
    38   17   18 2
    39   18   19 1
    40   18   63 1
    41   19   20 1
    42   19   21 1
    43   21   22 2
    44   21   64 1
    45   22   84 1
    46   23   24 am
    47   23   65 1
    48   24   25 2
    49   24   26 1
    50   26   27 1
    51   26   38 1
    52   26   66 1
    53   27   28 1
    54   27   67 1
    55   27   68 1
    56   28   33 ar
    57   28   29 ar
    58   29   30 ar
    59   29   69 1
    60   30   31 ar
    61   30   70 1
    62   31   32 ar
    63   31   71 1
    64   32   37 ar
    65   32   33 ar
    66   33   34 ar
    67   34   35 ar
    68   34   72 1
    69   35   36 ar
    70   35   73 1
    71   36   37 ar
    72   36   74 1
    73   37   75 1
    74   38   39 1
    75   38   76 1
    76   38   77 1
    77   39   40 2
    78   39   41 am
    79   41   42 1
    80   41   43 1
    81   42   78 1
    82   42   79 1
    83   42   80 1
    84   43   81 1
    85   43   82 1
    86   43   83 1
@<TRIPOS>MOLECULE
CHEMBL350425__28
   83    85     0     0     0
SMALL
USER_CHARGES

@<TRIPOS>ATOM
      1 C1         -0.1100    1.5208   -0.0724 C.3       1 <0>        -0.1469
      2 C2         -0.0723   -0.0087   -0.0718 C.3       1 <0>        -0.0908
      3 C3          0.6578   -0.5004    1.1796 C.3       1 <0>        -0.1394
      4 C4         -1.5018   -0.5541   -0.0757 C.3       1 <0>        -0.1210
      5 C5         -1.4657   -2.0786   -0.2008 C.3       1 <0>         0.1181
      6 C6         -2.8862   -2.6340   -0.0795 C.3       1 <0>         0.1123
      7 C7         -2.8506   -4.1355   -0.2028 C.2       1 <0>         0.4305
      8 O1         -3.3848   -4.6775   -1.1413 O.2       1 <0>        -0.4941
      9 O2         -2.2255   -4.8709    0.7301 O.3       1 <0>        -0.3464
     10 C8         -2.2310   -6.2885    0.5498 C.3       1 <0>         0.0323
     11 O3         -3.7008   -2.0898   -1.1198 O.3       1 <0>        -0.5180
     12 N1         -0.9063   -2.4485   -1.5032 N.am      1 <0>        -0.7284
     13 C9          0.4293   -2.5329   -1.6636 C.2       1 <0>         0.5180
     14 O4          1.1679   -2.3026   -0.7297 O.2       1 <0>        -0.5073
     15 C10         1.0048   -2.9135   -3.0034 C.3       1 <0>         0.1408
     16 C11         0.4963   -4.3005   -3.4015 C.3       1 <0>        -0.0497
     17 C12         0.9717   -4.6295   -4.7931 C.2       1 <0>        -0.0142
     18 C13         2.1601   -5.1662   -5.1295 C.2       1 <0>         0.0005
     19 N2          2.1915   -5.3017   -6.4636 N.2       1 <0>        -0.4840
     20 H1         -0.6170   -4.0774   -6.0427 H         1 <0>         0.4137
     21 C14         1.0677   -4.8694   -6.9666 C.2       1 <0>         0.1919
     22 N3          0.2763   -4.4457   -5.9577 N.pl3     1 <0>        -0.5597
     23 N4          2.4671   -2.9353   -2.9183 N.am      1 <0>        -0.7213
     24 C15         3.2095   -2.7472   -4.0273 C.2       1 <0>         0.5320
     25 O5          2.6687   -2.6307   -5.1066 O.2       1 <0>        -0.4921
     26 C16         4.7117   -2.6815   -3.9263 C.3       1 <0>        -0.0787
     27 C17         5.3010   -2.3470   -5.2981 C.3       1 <0>        -0.0698
     28 C18         6.8052   -2.4020   -5.2256 C.ar      1 <0>        -0.0629
     29 C19         7.5212   -1.2669   -4.9976 C.ar      1 <0>        -0.1189
     30 C20         8.9124   -1.2981   -4.9273 C.ar      1 <0>        -0.1130
     31 C21         9.5961   -2.4646   -5.0851 C.ar      1 <0>        -0.1108
     32 C22         8.8914   -3.6568   -5.3220 C.ar      1 <0>        -0.0495
     33 C23         7.4757   -3.6261   -5.3873 C.ar      1 <0>        -0.0464
     34 C24         6.7706   -4.8197   -5.6185 C.ar      1 <0>        -0.1027
     35 C25         7.4540   -5.9868   -5.7703 C.ar      1 <0>        -0.1160
     36 C26         8.8456   -6.0181   -5.6996 C.ar      1 <0>        -0.1142
     37 C27         9.5624   -4.8802   -5.4905 C.ar      1 <0>        -0.1104
     38 C28         5.1085   -1.5971   -2.9226 C.3       1 <0>        -0.1408
     39 C29         4.4648   -0.2916   -3.3130 C.2       1 <0>         0.5092
     40 O6          3.8295   -0.2128   -4.3431 O.2       1 <0>        -0.5165
     41 N5          4.5952    0.7885   -2.5174 N.am      1 <0>        -0.6204
     42 C30         3.9695    2.0576   -2.8969 C.3       1 <0>         0.0862
     43 C31         5.3626    0.6933   -1.2731 C.3       1 <0>         0.0758
     44 H2          0.9084    1.9094   -0.0697 H         1 <0>         0.0519
     45 H3         -0.6302    1.8711   -0.9640 H         1 <0>         0.0499
     46 H4         -0.6352    1.8717    0.8160 H         1 <0>         0.0534
     47 H5          0.4528   -0.3596   -0.9602 H         1 <0>         0.0728
     48 H6          0.1327   -0.1495    2.0680 H         1 <0>         0.0428
     49 H7          0.6846   -1.5901    1.1800 H         1 <0>         0.0713
     50 H8          1.6762   -0.1118    1.1823 H         1 <0>         0.0475
     51 H9         -1.9987   -0.2776    0.8542 H         1 <0>         0.0791
     52 H10        -2.0490   -0.1332   -0.9191 H         1 <0>         0.0743
     53 H11        -0.8443   -2.4936    0.5927 H         1 <0>         0.1190
     54 H12        -3.3024   -2.3588    0.8896 H         1 <0>         0.1550
     55 H13        -1.6932   -6.7613    1.3716 H         1 <0>         0.1063
     56 H14        -3.2596   -6.6487    0.5338 H         1 <0>         0.0632
     57 H15        -1.7443   -6.5367   -0.3934 H         1 <0>         0.0617
     58 H16        -3.3892   -2.2956   -2.0118 H         1 <0>         0.3805
     59 H17        -1.4970   -2.6327   -2.2502 H         1 <0>         0.3966
     60 H18         0.6952   -2.1843   -3.7521 H         1 <0>         0.1114
     61 H19         0.8799   -5.0428   -2.7015 H         1 <0>         0.0929
     62 H20        -0.5934   -4.3084   -3.3784 H         1 <0>         0.0771
     63 H21         2.9496   -5.4396   -4.4451 H         1 <0>         0.1518
     64 H22         0.8116   -4.8558   -8.0158 H         1 <0>         0.2011
     65 H23         2.9011   -3.0851   -2.0638 H         1 <0>         0.4042
     66 H24         5.0957   -3.6450   -3.5911 H         1 <0>         0.1013
     67 H25         4.9459   -3.0703   -6.0322 H         1 <0>         0.0878
     68 H26         4.9878   -1.3457   -5.5937 H         1 <0>         0.1010
     69 H27         7.0031   -0.3280   -4.8696 H         1 <0>         0.1163
     70 H28         9.4564   -0.3831   -4.7453 H         1 <0>         0.1209
     71 H29        10.6745   -2.4736   -5.0288 H         1 <0>         0.1250
     72 H30         5.6922   -4.8109   -5.6750 H         1 <0>         0.1316
     73 H31         6.9097   -6.9025   -5.9478 H         1 <0>         0.1230
     74 H32         9.3635   -6.9577   -5.8232 H         1 <0>         0.1217
     75 H33        10.6405   -4.9196   -5.4389 H         1 <0>         0.1251
     76 H34         4.7728   -1.8840   -1.9261 H         1 <0>         0.0961
     77 H35         6.1924   -1.4819   -2.9217 H         1 <0>         0.1080
     78 H36         2.9612    2.1029   -2.4854 H         1 <0>         0.0523
     79 H37         4.5598    2.8855   -2.5040 H         1 <0>         0.0686
     80 H38         3.9220    2.1287   -3.9835 H         1 <0>         0.0763
     81 H39         6.4061    0.9392   -1.4701 H         1 <0>         0.0584
     82 H40         4.9566    1.3919   -0.5415 H         1 <0>         0.0729
     83 H41         5.2961   -0.3219   -0.8819 H         1 <0>         0.0733
@<TRIPOS>BOND
     1    1    2 1
     2    1   44 1
     3    1   45 1
     4    1   46 1
     5    2    3 1
     6    2    4 1
     7    2   47 1
     8    3   48 1
     9    3   49 1
    10    3   50 1
    11    4    5 1
    12    4   51 1
    13    4   52 1
    14    5    6 1
    15    5   12 1
    16    5   53 1
    17    6    7 1
    18    6   11 1
    19    6   54 1
    20    7    8 2
    21    7    9 1
    22    9   10 1
    23   10   55 1
    24   10   56 1
    25   10   57 1
    26   11   58 1
    27   12   13 am
    28   12   59 1
    29   13   14 2
    30   13   15 1
    31   15   16 1
    32   15   23 1
    33   15   60 1
    34   16   61 1
    35   16   62 1
    36   16   17 1
    37   17   18 2
    38   17   22 1
    39   18   19 1
    40   18   63 1
    41   19   21 2
    42   20   22 1
    43   21   64 1
    44   21   22 1
    45   23   24 am
    46   23   65 1
    47   24   25 2
    48   24   26 1
    49   26   27 1
    50   26   38 1
    51   26   66 1
    52   27   28 1
    53   27   67 1
    54   27   68 1
    55   28   33 ar
    56   28   29 ar
    57   29   30 ar
    58   29   69 1
    59   30   31 ar
    60   30   70 1
    61   31   32 ar
    62   31   71 1
    63   32   37 ar
    64   32   33 ar
    65   33   34 ar
    66   34   35 ar
    67   34   72 1
    68   35   36 ar
    69   35   73 1
    70   36   37 ar
    71   36   74 1
    72   37   75 1
    73   38   39 1
    74   38   76 1
    75   38   77 1
    76   39   40 2
    77   39   41 am
    78   41   42 1
    79   41   43 1
    80   42   78 1
    81   42   79 1
    82   42   80 1
    83   43   81 1
    84   43   82 1
    85   43   83 1
@<TRIPOS>MOLECULE
CHEMBL350425__29
   83    85     0     0     0
SMALL
USER_CHARGES

@<TRIPOS>ATOM
      1 C1         -0.0988    1.5250   -0.0654 C.3       1 <0>        -0.1466
      2 C2         -0.0649   -0.0047   -0.0667 C.3       1 <0>        -0.0910
      3 C3          0.6644   -0.4997    1.1839 C.3       1 <0>        -0.1385
      4 C4         -1.4958   -0.5465   -0.0707 C.3       1 <0>        -0.1208
      5 C5         -1.4635   -2.0709   -0.1977 C.3       1 <0>         0.1182
      6 C6         -2.8853   -2.6229   -0.0766 C.3       1 <0>         0.1128
      7 C7         -2.8535   -4.1244   -0.2017 C.2       1 <0>         0.4302
      8 O1         -3.3894   -4.6638   -1.1407 O.2       1 <0>        -0.4920
      9 O2         -2.2299   -4.8625    0.7300 O.3       1 <0>        -0.3474
     10 C8         -2.2390   -6.2798    0.5480 C.3       1 <0>         0.0325
     11 O3         -3.6990   -2.0754   -1.1160 O.3       1 <0>        -0.5191
     12 N1         -0.9054   -2.4406   -1.5008 N.am      1 <0>        -0.7279
     13 C9          0.4298   -2.5281   -1.6618 C.2       1 <0>         0.5183
     14 O4          1.1694   -2.3008   -0.7278 O.2       1 <0>        -0.5151
     15 C10         1.0039   -2.9085   -3.0022 C.3       1 <0>         0.1436
     16 C11         0.4918   -4.2938   -3.4018 C.3       1 <0>        -0.0385
     17 C12         0.9660   -4.6222   -4.7941 C.2       1 <0>         0.0147
     18 C13         1.6569   -5.7199   -5.1564 C.2       1 <0>        -0.0619
     19 N2          1.8806   -5.6204   -6.5031 N.pl3     1 <0>        -0.5717
     20 H1          2.3547   -6.2605   -7.0567 H         1 <0>         0.4153
     21 C14         1.3182   -4.4646   -6.9172 C.2       1 <0>         0.1965
     22 N3          0.7687   -3.8754   -5.8906 N.2       1 <0>        -0.4478
     23 N4          2.4662   -2.9340   -2.9177 N.am      1 <0>        -0.7199
     24 C15         3.2087   -2.7464   -4.0268 C.2       1 <0>         0.5232
     25 O5          2.6679   -2.6296   -5.1060 O.2       1 <0>        -0.4809
     26 C16         4.7109   -2.6818   -3.9258 C.3       1 <0>        -0.0801
     27 C17         5.3004   -2.3483   -5.2977 C.3       1 <0>        -0.0674
     28 C18         6.8046   -2.4043   -5.2252 C.ar      1 <0>        -0.0643
     29 C19         7.5213   -1.2696   -4.9978 C.ar      1 <0>        -0.1163
     30 C20         8.9125   -1.3017   -4.9275 C.ar      1 <0>        -0.1111
     31 C21         9.5954   -2.4688   -5.0847 C.ar      1 <0>        -0.1111
     32 C22         8.8899   -3.6606   -5.3211 C.ar      1 <0>        -0.0493
     33 C23         7.4743   -3.6289   -5.3863 C.ar      1 <0>        -0.0460
     34 C24         6.7684   -4.8222   -5.6170 C.ar      1 <0>        -0.1050
     35 C25         7.4509   -5.9898   -5.7682 C.ar      1 <0>        -0.1175
     36 C26         8.8426   -6.0220   -5.6975 C.ar      1 <0>        -0.1162
     37 C27         9.5601   -4.8845   -5.4890 C.ar      1 <0>        -0.1066
     38 C28         5.1085   -1.5971   -2.9226 C.3       1 <0>        -0.1386
     39 C29         4.4648   -0.2916   -3.3130 C.2       1 <0>         0.5090
     40 O6          3.8295   -0.2128   -4.3431 O.2       1 <0>        -0.5133
     41 N5          4.5952    0.7885   -2.5174 N.am      1 <0>        -0.6209
     42 C30         3.9695    2.0576   -2.8969 C.3       1 <0>         0.0861
     43 C31         5.3626    0.6933   -1.2731 C.3       1 <0>         0.0779
     44 H2          0.9205    1.9110   -0.0626 H         1 <0>         0.0511
     45 H3         -0.6184    1.8776   -0.9563 H         1 <0>         0.0504
     46 H4         -0.6227    1.8760    0.8236 H         1 <0>         0.0525
     47 H5          0.4590   -0.3557   -0.9557 H         1 <0>         0.0741
     48 H6          0.1405   -0.1486    2.0729 H         1 <0>         0.0418
     49 H7          0.6885   -1.5894    1.1829 H         1 <0>         0.0714
     50 H8          1.6837   -0.1137    1.1867 H         1 <0>         0.0464
     51 H9         -1.9916   -0.2698    0.8597 H         1 <0>         0.0777
     52 H10        -2.0422   -0.1232   -0.9135 H         1 <0>         0.0749
     53 H11        -0.8428   -2.4885    0.5950 H         1 <0>         0.1173
     54 H12        -3.3005   -2.3478    0.8929 H         1 <0>         0.1535
     55 H13        -1.7021   -6.7550    1.3689 H         1 <0>         0.1049
     56 H14        -3.2685   -6.6374    0.5318 H         1 <0>         0.0626
     57 H15        -1.7533   -6.5281   -0.3957 H         1 <0>         0.0616
     58 H16        -3.3882   -2.2809   -2.0083 H         1 <0>         0.3828
     59 H17        -1.4969   -2.6224   -2.2478 H         1 <0>         0.3993
     60 H18         0.6959   -2.1776   -3.7500 H         1 <0>         0.1216
     61 H19         0.8739   -5.0379   -2.7029 H         1 <0>         0.0769
     62 H20        -0.5979   -4.2990   -3.3784 H         1 <0>         0.0799
     63 H21         1.9740   -6.5239   -4.5088 H         1 <0>         0.1642
     64 H22         1.3194   -4.0917   -7.9308 H         1 <0>         0.1986
     65 H23         2.9001   -3.0860   -2.0636 H         1 <0>         0.4004
     66 H24         5.0943   -3.6453   -3.5901 H         1 <0>         0.0965
     67 H25         4.9448   -3.0717   -6.0315 H         1 <0>         0.0800
     68 H26         4.9879   -1.3469   -5.5938 H         1 <0>         0.1035
     69 H27         7.0039   -0.3302   -4.8702 H         1 <0>         0.1181
     70 H28         9.4572   -0.3870   -4.7459 H         1 <0>         0.1224
     71 H29        10.6739   -2.4784   -5.0284 H         1 <0>         0.1260
     72 H30         5.6899   -4.8126   -5.6735 H         1 <0>         0.1252
     73 H31         6.9060   -6.9053   -5.9453 H         1 <0>         0.1203
     74 H32         9.3597   -6.9621   -5.8207 H         1 <0>         0.1222
     75 H33        10.6382   -4.9246   -5.4374 H         1 <0>         0.1264
     76 H34         4.7733   -1.8837   -1.9258 H         1 <0>         0.0953
     77 H35         6.1924   -1.4820   -2.9224 H         1 <0>         0.1051
     78 H36         2.9612    2.1029   -2.4854 H         1 <0>         0.0529
     79 H37         4.5598    2.8855   -2.5040 H         1 <0>         0.0680
     80 H38         3.9220    2.1287   -3.9835 H         1 <0>         0.0763
     81 H39         6.3898    0.4084   -1.5006 H         1 <0>         0.0611
     82 H40         5.3569    1.6592   -0.7680 H         1 <0>         0.0781
     83 H41         4.9121   -0.0583   -0.6249 H         1 <0>         0.0630
@<TRIPOS>BOND
     1    1    2 1
     2    1   44 1
     3    1   45 1
     4    1   46 1
     5    2    3 1
     6    2    4 1
     7    2   47 1
     8    3   48 1
     9    3   49 1
    10    3   50 1
    11    4    5 1
    12    4   51 1
    13    4   52 1
    14    5    6 1
    15    5   12 1
    16    5   53 1
    17    6    7 1
    18    6   11 1
    19    6   54 1
    20    7    8 2
    21    7    9 1
    22    9   10 1
    23   10   55 1
    24   10   56 1
    25   10   57 1
    26   11   58 1
    27   12   13 am
    28   12   59 1
    29   13   14 2
    30   13   15 1
    31   15   16 1
    32   15   23 1
    33   15   60 1
    34   16   17 1
    35   16   61 1
    36   16   62 1
    37   17   22 1
    38   17   18 2
    39   18   19 1
    40   18   63 1
    41   19   20 1
    42   19   21 1
    43   21   22 2
    44   21   64 1
    45   23   24 am
    46   23   65 1
    47   24   25 2
    48   24   26 1
    49   26   27 1
    50   26   38 1
    51   26   66 1
    52   27   28 1
    53   27   67 1
    54   27   68 1
    55   28   33 ar
    56   28   29 ar
    57   29   30 ar
    58   29   69 1
    59   30   31 ar
    60   30   70 1
    61   31   32 ar
    62   31   71 1
    63   32   37 ar
    64   32   33 ar
    65   33   34 ar
    66   34   35 ar
    67   34   72 1
    68   35   36 ar
    69   35   73 1
    70   36   37 ar
    71   36   74 1
    72   37   75 1
    73   38   39 1
    74   38   76 1
    75   38   77 1
    76   39   40 2
    77   39   41 am
    78   41   42 1
    79   41   43 1
    80   42   78 1
    81   42   79 1
    82   42   80 1
    83   43   81 1
    84   43   82 1
    85   43   83 1
@<TRIPOS>MOLECULE
CHEMBL350425__30
   84    86     0     0     0
SMALL
USER_CHARGES

@<TRIPOS>ATOM
      1 C1          0.4850    2.7483   -2.4201 C.3       1 <0>        -0.1513
      2 C2          0.4649    1.3615   -1.7742 C.3       1 <0>        -0.0878
      3 C3          1.2920    1.3863   -0.4872 C.3       1 <0>        -0.1454
      4 C4         -0.9779    0.9727   -1.4457 C.3       1 <0>        -0.1228
      5 C5         -1.0114   -0.4620   -0.9153 C.3       1 <0>         0.1173
      6 C6         -2.4337   -0.8082   -0.4703 C.3       1 <0>         0.1111
      7 C7         -2.4667   -2.2214    0.0521 C.2       1 <0>         0.4298
      8 O1         -3.1080   -3.0651   -0.5281 O.2       1 <0>        -0.4960
      9 O2         -1.7835   -2.5427    1.1620 O.3       1 <0>        -0.3455
     10 C8         -1.8596   -3.9008    1.6002 C.3       1 <0>         0.0323
     11 O3         -3.3228   -0.6908   -1.5828 O.3       1 <0>        -0.5136
     12 N1         -0.5930   -1.3840   -1.9742 N.am      1 <0>        -0.7240
     13 C9          0.7170   -1.6269   -2.1775 C.2       1 <0>         0.5132
     14 O4          1.5495   -1.0823   -1.4838 O.2       1 <0>        -0.4922
     15 C10         1.1473   -2.5753   -3.2668 C.3       1 <0>         0.1291
     16 C11         0.6534   -2.0568   -4.6188 C.3       1 <0>        -0.0721
     17 C12         0.9763   -3.0647   -5.6917 C.2       1 <0>         0.0418
     18 C13         2.1457   -3.1717   -6.3508 C.2       1 <0>         0.0464
     19 N2          2.0105   -4.2111   -7.2311 N.pl3     1 <0>        -0.5007
     20 H1          2.6853   -4.5338   -7.8488 H         1 <0>         0.4659
     21 C14         0.7622   -4.7035   -7.0792 C.cat     1 <0>         0.3125
     22 N3          0.1512   -4.0161   -6.1533 N.pl3     1 <0>        -0.4675
     23 N4          2.6092   -2.6682   -3.2839 N.am      1 <0>        -0.7126
     24 C15         3.2087   -3.7690   -3.7793 C.2       1 <0>         0.5272
     25 O5          2.5379   -4.6825   -4.2109 O.2       1 <0>        -0.5406
     26 C16         4.7126   -3.8646   -3.7968 C.3       1 <0>        -0.0907
     27 C17         5.1313   -5.2045   -4.4053 C.3       1 <0>        -0.0540
     28 C18         6.6323   -5.2515   -4.5320 C.ar      1 <0>        -0.0675
     29 C19         7.2494   -4.6467   -5.5839 C.ar      1 <0>        -0.0789
     30 C20         8.6359   -4.6796   -5.7178 C.ar      1 <0>        -0.1037
     31 C21         9.4136   -5.3179   -4.8009 C.ar      1 <0>        -0.1038
     32 C22         8.8125   -5.9537   -3.7016 C.ar      1 <0>        -0.0424
     33 C23         7.4024   -5.9149   -3.5620 C.ar      1 <0>        -0.0371
     34 C24         6.8016   -6.5459   -2.4592 C.ar      1 <0>        -0.1223
     35 C25         7.5797   -7.1789   -1.5394 C.ar      1 <0>        -0.1103
     36 C26         8.9667   -7.2115   -1.6732 C.ar      1 <0>        -0.1194
     37 C27         9.5823   -6.6231   -2.7349 C.ar      1 <0>        -0.1008
     38 C28         5.2467   -3.7648   -2.3666 C.3       1 <0>        -0.1400
     39 C29         6.7129   -3.4181   -2.4010 C.2       1 <0>         0.5164
     40 O6          7.2383   -3.1082   -3.4492 O.2       1 <0>        -0.5176
     41 N5          7.4403   -3.4524   -1.2668 N.am      1 <0>        -0.6110
     42 C30         8.8375   -3.0122   -1.2791 C.3       1 <0>         0.0871
     43 C31         6.8336   -3.9298   -0.0217 C.3       1 <0>         0.0740
     44 H2          1.5129    3.0253   -2.6541 H         1 <0>         0.0551
     45 H3         -0.1042    2.7307   -3.3369 H         1 <0>         0.0507
     46 H4          0.0606    3.4770   -1.7294 H         1 <0>         0.0570
     47 H5          0.8893    0.6328   -2.4648 H         1 <0>         0.0675
     48 H6          1.2777    0.3983   -0.0270 H         1 <0>         0.0698
     49 H7          2.3199    1.6633   -0.7212 H         1 <0>         0.0508
     50 H8          0.8676    2.1150    0.2035 H         1 <0>         0.0475
     51 H9         -1.3731    1.6494   -0.6881 H         1 <0>         0.0843
     52 H10        -1.5869    1.0412   -2.3471 H         1 <0>         0.0764
     53 H11        -0.3332   -0.5516   -0.0667 H         1 <0>         0.1221
     54 H12        -2.7450   -0.1223    0.3176 H         1 <0>         0.1590
     55 H13        -2.8980   -4.1569    1.8109 H         1 <0>         0.0661
     56 H14        -1.4749   -4.5567    0.8193 H         1 <0>         0.0595
     57 H15        -1.2641   -4.0246    2.5047 H         1 <0>         0.1084
     58 H16        -3.1056   -1.2737   -2.3231 H         1 <0>         0.3759
     59 H17        -1.2589   -1.8195   -2.5291 H         1 <0>         0.3958
     60 H18         0.7227   -3.5614   -3.0786 H         1 <0>         0.1215
     61 H19        -0.4249   -1.9033   -4.5772 H         1 <0>         0.1093
     62 H20         1.1463   -1.1120   -4.8478 H         1 <0>         0.1235
     63 H21         3.0218   -2.5556   -6.2118 H         1 <0>         0.2149
     64 H22         0.3408   -5.5315   -7.6298 H         1 <0>         0.2640
     65 H23         3.1458   -1.9376   -2.9386 H         1 <0>         0.4196
     66 H24         5.1215   -3.0503   -4.3950 H         1 <0>         0.1199
     67 H25         4.7955   -6.0170   -3.7610 H         1 <0>         0.0799
     68 H26         4.6799   -5.3126   -5.3915 H         1 <0>         0.0747
     69 H27         6.6553   -4.1339   -6.3259 H         1 <0>         0.1090
     70 H28         9.1005   -4.1917   -6.5619 H         1 <0>         0.1178
     71 H29        10.4871   -5.3358   -4.9180 H         1 <0>         0.1222
     72 H30         5.7282   -6.5282   -2.3420 H         1 <0>         0.1183
     73 H31         7.1155   -7.6630   -0.6929 H         1 <0>         0.1191
     74 H32         9.5610   -7.7205   -0.9288 H         1 <0>         0.1213
     75 H33        10.6580   -6.6571   -2.8258 H         1 <0>         0.1248
     76 H34         4.7023   -2.9887   -1.8287 H         1 <0>         0.0979
     77 H35         5.1112   -4.7207   -1.8606 H         1 <0>         0.0989
     78 H36         8.8914   -1.9657   -0.9793 H         1 <0>         0.0538
     79 H37         9.4160   -3.6198   -0.5832 H         1 <0>         0.0662
     80 H38         9.2447   -3.1237   -2.2840 H         1 <0>         0.0805
     81 H39         5.7971   -4.2114   -0.2072 H         1 <0>         0.0734
     82 H40         7.3858   -4.7961    0.3426 H         1 <0>         0.0650
     83 H41         6.8666   -3.1372    0.7258 H         1 <0>         0.0641
     84 H42        -0.7570   -4.1681   -5.8484 H         1 <0>         0.4619
@<TRIPOS>BOND
     1    1    2 1
     2    1   44 1
     3    1   45 1
     4    1   46 1
     5    2    3 1
     6    2    4 1
     7    2   47 1
     8    3   48 1
     9    3   49 1
    10    3   50 1
    11    4    5 1
    12    4   51 1
    13    4   52 1
    14    5    6 1
    15    5   12 1
    16    5   53 1
    17    6    7 1
    18    6   11 1
    19    6   54 1
    20    7    8 2
    21    7    9 1
    22    9   10 1
    23   10   55 1
    24   10   56 1
    25   10   57 1
    26   11   58 1
    27   12   13 am
    28   12   59 1
    29   13   14 2
    30   13   15 1
    31   15   16 1
    32   15   23 1
    33   15   60 1
    34   16   17 1
    35   16   61 1
    36   16   62 1
    37   17   22 1
    38   17   18 2
    39   18   19 1
    40   18   63 1
    41   19   20 1
    42   19   21 1
    43   21   22 2
    44   21   64 1
    45   22   84 1
    46   23   24 am
    47   23   65 1
    48   24   25 2
    49   24   26 1
    50   26   27 1
    51   26   38 1
    52   26   66 1
    53   27   28 1
    54   27   67 1
    55   27   68 1
    56   28   33 ar
    57   28   29 ar
    58   29   30 ar
    59   29   69 1
    60   30   31 ar
    61   30   70 1
    62   31   32 ar
    63   31   71 1
    64   32   37 ar
    65   32   33 ar
    66   33   34 ar
    67   34   35 ar
    68   34   72 1
    69   35   36 ar
    70   35   73 1
    71   36   37 ar
    72   36   74 1
    73   37   75 1
    74   38   39 1
    75   38   76 1
    76   38   77 1
    77   39   40 2
    78   39   41 am
    79   41   42 1
    80   41   43 1
    81   42   78 1
    82   42   79 1
    83   42   80 1
    84   43   81 1
    85   43   82 1
    86   43   83 1
@<TRIPOS>MOLECULE
CHEMBL350425__31
   83    85     0     0     0
SMALL
USER_CHARGES

@<TRIPOS>ATOM
      1 C1          0.4634    2.7465   -2.4410 C.3       1 <0>        -0.1485
      2 C2          0.4457    1.3615   -1.7910 C.3       1 <0>        -0.0915
      3 C3          1.2702    1.3922   -0.5025 C.3       1 <0>        -0.1415
      4 C4         -0.9968    0.9700   -1.4642 C.3       1 <0>        -0.1201
      5 C5         -1.0277   -0.4633   -0.9297 C.3       1 <0>         0.1176
      6 C6         -2.4499   -0.8118   -0.4864 C.3       1 <0>         0.1129
      7 C7         -2.4803   -2.2235    0.0401 C.2       1 <0>         0.4302
      8 O1         -3.1183   -3.0706   -0.5389 O.2       1 <0>        -0.4938
      9 O2         -1.7985   -2.5399    1.1522 O.3       1 <0>        -0.3471
     10 C8         -1.8720   -3.8968    1.5942 C.3       1 <0>         0.0325
     11 O3         -3.3372   -0.6999   -1.6010 O.3       1 <0>        -0.5186
     12 N1         -0.6049   -1.3872   -1.9851 N.am      1 <0>        -0.7287
     13 C9          0.7061   -1.6274   -2.1851 C.2       1 <0>         0.5164
     14 O4          1.5359   -1.0786   -1.4914 O.2       1 <0>        -0.5099
     15 C10         1.1410   -2.5778   -3.2707 C.3       1 <0>         0.1427
     16 C11         0.6484   -2.0646   -4.6253 C.3       1 <0>        -0.0393
     17 C12         0.9759   -3.0748   -5.6946 C.2       1 <0>         0.0025
     18 C13         0.1002   -3.6292   -6.5544 C.2       1 <0>        -0.0532
     19 N2          0.8136   -4.4854   -7.3492 N.pl3     1 <0>        -0.5710
     20 H1          0.4601   -5.0336   -8.0671 H         1 <0>         0.4173
     21 C14         2.1013   -4.4243   -6.9471 C.2       1 <0>         0.1881
     22 N3          2.1917   -3.5750   -5.9605 N.2       1 <0>        -0.4478
     23 N4          2.6032   -2.6671   -3.2847 N.am      1 <0>        -0.7151
     24 C15         3.2065   -3.7677   -3.7758 C.2       1 <0>         0.5512
     25 O5          2.5389   -4.6843   -4.2060 O.2       1 <0>        -0.5148
     26 C16         4.7106   -3.8596   -3.7902 C.3       1 <0>        -0.0775
     27 C17         5.1340   -5.2002   -4.3939 C.3       1 <0>        -0.0560
     28 C18         6.6352   -5.2433   -4.5184 C.ar      1 <0>        -0.0526
     29 C19         7.2523   -4.6371   -5.5694 C.ar      1 <0>        -0.0829
     30 C20         8.6391   -4.6665   -5.7013 C.ar      1 <0>        -0.0967
     31 C21         9.4171   -5.3027   -4.7831 C.ar      1 <0>        -0.1177
     32 C22         8.8159   -5.9398   -3.6846 C.ar      1 <0>        -0.0418
     33 C23         7.4056   -5.9045   -3.5471 C.ar      1 <0>        -0.0397
     34 C24         6.8048   -6.5369   -2.4450 C.ar      1 <0>        -0.1130
     35 C25         7.5831   -7.1677   -1.5240 C.ar      1 <0>        -0.1199
     36 C26         8.9704   -7.1968   -1.6557 C.ar      1 <0>        -0.1213
     37 C27         9.5861   -6.6070   -2.7165 C.ar      1 <0>        -0.1056
     38 C28         5.2417   -3.7542   -2.3592 C.3       1 <0>        -0.1376
     39 C29         6.7076   -3.4060   -2.3917 C.2       1 <0>         0.5169
     40 O6          7.2343   -3.0972   -3.4396 O.2       1 <0>        -0.5155
     41 N5          7.4331   -3.4377   -1.2564 N.am      1 <0>        -0.6162
     42 C30         8.8300   -2.9964   -1.2673 C.3       1 <0>         0.0890
     43 C31         6.8249   -3.9136   -0.0115 C.3       1 <0>         0.0799
     44 H2          1.4911    3.0254   -2.6738 H         1 <0>         0.0534
     45 H3         -0.1240    2.7246   -3.3589 H         1 <0>         0.0507
     46 H4          0.0358    3.4761   -1.7533 H         1 <0>         0.0526
     47 H5          0.8733    0.6319   -2.4787 H         1 <0>         0.0746
     48 H6          0.8426    2.1218    0.1852 H         1 <0>         0.0423
     49 H7          1.2575    0.4055   -0.0395 H         1 <0>         0.0713
     50 H8          2.2978    1.6711   -0.7354 H         1 <0>         0.0487
     51 H9         -1.3952    1.6479   -0.7093 H         1 <0>         0.0780
     52 H10        -1.6042    1.0342   -2.3670 H         1 <0>         0.0753
     53 H11        -0.3509   -0.5487   -0.0795 H         1 <0>         0.1177
     54 H12        -2.7645   -0.1244    0.2988 H         1 <0>         0.1542
     55 H13        -1.2779   -4.0165    2.5003 H         1 <0>         0.1056
     56 H14        -2.9101   -4.1550    1.8037 H         1 <0>         0.0630
     57 H15        -1.4840   -4.5540    0.8160 H         1 <0>         0.0615
     58 H16        -3.1171   -1.2845   -2.3392 H         1 <0>         0.3812
     59 H17        -1.2685   -1.8261   -2.5399 H         1 <0>         0.3978
     60 H18         0.7186   -3.5645   -3.0806 H         1 <0>         0.1103
     61 H19        -0.4304   -1.9138   -4.5862 H         1 <0>         0.0815
     62 H20         1.1394   -1.1192   -4.8560 H         1 <0>         0.0821
     63 H21        -0.9611   -3.4358   -6.6065 H         1 <0>         0.1687
     64 H22         2.9212   -4.9828   -7.3740 H         1 <0>         0.1977
     65 H23         3.1372   -1.9341   -2.9406 H         1 <0>         0.4043
     66 H24         5.1186   -3.0460   -4.3899 H         1 <0>         0.1128
     67 H25         4.7995   -6.0116   -3.7475 H         1 <0>         0.0726
     68 H26         4.6842   -5.3126   -5.3804 H         1 <0>         0.0854
     69 H27         6.6581   -4.1261   -6.3124 H         1 <0>         0.1150
     70 H28         9.1037   -4.1776   -6.5448 H         1 <0>         0.1151
     71 H29        10.4908   -5.3178   -4.8986 H         1 <0>         0.1177
     72 H30         5.7311   -6.5219   -2.3295 H         1 <0>         0.1215
     73 H31         7.1189   -7.6528   -0.6781 H         1 <0>         0.1163
     74 H32         9.5650   -7.7040   -0.9103 H         1 <0>         0.1166
     75 H33        10.6620   -6.6382   -2.8059 H         1 <0>         0.1203
     76 H34         4.6954   -2.9768   -1.8251 H         1 <0>         0.0951
     77 H35         5.1062   -4.7085   -1.8502 H         1 <0>         0.0920
     78 H36         8.8826   -1.9494   -0.9687 H         1 <0>         0.0493
     79 H37         9.4080   -3.6026   -0.5697 H         1 <0>         0.0622
     80 H38         9.2388   -3.1089   -2.2714 H         1 <0>         0.0790
     81 H39         6.4921   -4.9435   -0.1401 H         1 <0>         0.0598
     82 H40         7.5592   -3.8668    0.7927 H         1 <0>         0.0753
     83 H41         5.9709   -3.2844    0.2393 H         1 <0>         0.0592
@<TRIPOS>BOND
     1    1    2 1
     2    1   44 1
     3    1   45 1
     4    1   46 1
     5    2    3 1
     6    2    4 1
     7    2   47 1
     8    3   48 1
     9    3   49 1
    10    3   50 1
    11    4    5 1
    12    4   51 1
    13    4   52 1
    14    5    6 1
    15    5   12 1
    16    5   53 1
    17    6    7 1
    18    6   11 1
    19    6   54 1
    20    7    8 2
    21    7    9 1
    22    9   10 1
    23   10   55 1
    24   10   56 1
    25   10   57 1
    26   11   58 1
    27   12   13 am
    28   12   59 1
    29   13   14 2
    30   13   15 1
    31   15   16 1
    32   15   23 1
    33   15   60 1
    34   16   17 1
    35   16   61 1
    36   16   62 1
    37   17   22 1
    38   17   18 2
    39   18   19 1
    40   18   63 1
    41   19   20 1
    42   19   21 1
    43   21   22 2
    44   21   64 1
    45   23   24 am
    46   23   65 1
    47   24   25 2
    48   24   26 1
    49   26   27 1
    50   26   38 1
    51   26   66 1
    52   27   28 1
    53   27   67 1
    54   27   68 1
    55   28   33 ar
    56   28   29 ar
    57   29   30 ar
    58   29   69 1
    59   30   31 ar
    60   30   70 1
    61   31   32 ar
    62   31   71 1
    63   32   37 ar
    64   32   33 ar
    65   33   34 ar
    66   34   35 ar
    67   34   72 1
    68   35   36 ar
    69   35   73 1
    70   36   37 ar
    71   36   74 1
    72   37   75 1
    73   38   39 1
    74   38   76 1
    75   38   77 1
    76   39   40 2
    77   39   41 am
    78   41   42 1
    79   41   43 1
    80   42   78 1
    81   42   79 1
    82   42   80 1
    83   43   81 1
    84   43   82 1
    85   43   83 1
@<TRIPOS>MOLECULE
CHEMBL350425__32
   83    85     0     0     0
SMALL
USER_CHARGES

@<TRIPOS>ATOM
      1 C1          2.4356   -0.9107    3.1400 C.3       1 <0>        -0.1490
      2 C2          1.9201   -2.0281    2.2309 C.3       1 <0>        -0.0904
      3 C3          2.4030   -3.3799    2.7604 C.3       1 <0>        -0.1415
      4 C4          0.3904   -2.0050    2.2116 C.3       1 <0>        -0.1207
      5 C5         -0.1227   -3.0395    1.2079 C.3       1 <0>         0.1179
      6 C6         -1.6497   -3.1046    1.2781 C.3       1 <0>         0.1127
      7 C7         -2.1550   -4.1236    0.2895 C.2       1 <0>         0.4291
      8 O1         -2.8326   -3.7722   -0.6471 O.2       1 <0>        -0.4916
      9 O2         -1.8524   -5.4215    0.4495 O.3       1 <0>        -0.3478
     10 C8         -2.3649   -6.3321   -0.5253 C.3       1 <0>         0.0324
     11 O3         -2.1962   -1.8226    0.9622 O.3       1 <0>        -0.5181
     12 N1          0.2879   -2.6534   -0.1444 N.am      1 <0>        -0.7276
     13 C9          1.5060   -3.0018   -0.6041 C.2       1 <0>         0.5152
     14 O4          2.2622   -3.6350    0.1017 O.2       1 <0>        -0.5099
     15 C10         1.9284   -2.6047   -1.9951 C.3       1 <0>         0.1304
     16 C11         1.9093   -1.0797   -2.1180 C.3       1 <0>        -0.0478
     17 C12         2.1627   -0.6881   -3.5510 C.2       1 <0>        -0.0277
     18 C13         1.2436   -0.5872   -4.5302 C.2       1 <0>        -0.0050
     19 N2          1.8737   -0.2134   -5.6537 N.2       1 <0>        -0.4814
     20 H1          4.2261   -0.3380   -3.6501 H         1 <0>         0.4119
     21 C14         3.1483   -0.0788   -5.4079 C.2       1 <0>         0.2041
     22 N3          3.3703   -0.3606   -4.1060 N.pl3     1 <0>        -0.5600
     23 N4          3.2832   -3.0985   -2.2538 N.am      1 <0>        -0.7154
     24 C15         3.5979   -3.6001   -3.4645 C.2       1 <0>         0.5214
     25 O5          2.7418   -3.7101   -4.3165 O.2       1 <0>        -0.5031
     26 C16         5.0135   -4.0243   -3.7596 C.3       1 <0>        -0.0842
     27 C17         5.0853   -4.6164   -5.1685 C.3       1 <0>        -0.0620
     28 C18         4.7703   -3.5449   -6.1803 C.ar      1 <0>        -0.0763
     29 C19         3.5495   -3.5091   -6.7814 C.ar      1 <0>        -0.0686
     30 C20         3.2401   -2.5262   -7.7192 C.ar      1 <0>        -0.0961
     31 C21         4.1498   -1.5733   -8.0619 C.ar      1 <0>        -0.1111
     32 C22         5.4206   -1.5780   -7.4626 C.ar      1 <0>        -0.0569
     33 C23         5.7332   -2.5742   -6.5040 C.ar      1 <0>        -0.0456
     34 C24         7.0024   -2.5752   -5.9002 C.ar      1 <0>        -0.1164
     35 C25         7.9097   -1.6191   -6.2386 C.ar      1 <0>        -0.1244
     36 C26         7.6001   -0.6356   -7.1764 C.ar      1 <0>        -0.1207
     37 C27         6.3861   -0.6110   -7.7913 C.ar      1 <0>        -0.1142
     38 C28         5.4532   -5.0776   -2.7407 C.3       1 <0>        -0.1370
     39 C29         6.9172   -5.3802   -2.9309 C.2       1 <0>         0.5173
     40 O6          7.5755   -4.7248   -3.7107 O.2       1 <0>        -0.5318
     41 N5          7.4949   -6.3790   -2.2345 N.am      1 <0>        -0.6201
     42 C30         8.9390   -6.6032   -2.3365 C.3       1 <0>         0.0808
     43 C31         6.6787   -7.2405   -1.3755 C.3       1 <0>         0.0734
     44 H2          3.5254   -0.9272    3.1538 H         1 <0>         0.0527
     45 H3          2.0916    0.0524    2.7628 H         1 <0>         0.0508
     46 H4          2.0571   -1.0611    4.1511 H         1 <0>         0.0536
     47 H5          2.2986   -1.8777    1.2199 H         1 <0>         0.0726
     48 H6          2.0245   -3.5304    3.7714 H         1 <0>         0.0431
     49 H7          2.0357   -4.1760    2.1127 H         1 <0>         0.0715
     50 H8          3.4928   -3.3965    2.7742 H         1 <0>         0.0478
     51 H9          0.0108   -2.2433    3.2051 H         1 <0>         0.0788
     52 H10         0.0457   -1.0131    1.9193 H         1 <0>         0.0757
     53 H11         0.2942   -4.0174    1.4488 H         1 <0>         0.1176
     54 H12        -1.9552   -3.3919    2.2842 H         1 <0>         0.1542
     55 H13        -2.0474   -7.3452   -0.2785 H         1 <0>         0.1054
     56 H14        -3.4538   -6.2837   -0.5306 H         1 <0>         0.0635
     57 H15        -1.9844   -6.0619   -1.5104 H         1 <0>         0.0620
     58 H16        -1.9645   -1.5030    0.0794 H         1 <0>         0.3816
     59 H17        -0.3169   -2.1469   -0.7089 H         1 <0>         0.3987
     60 H18         1.2395   -3.0364   -2.7212 H         1 <0>         0.1279
     61 H19         0.9359   -0.7021   -1.8048 H         1 <0>         0.0974
     62 H20         2.6857   -0.6542   -1.4823 H         1 <0>         0.0790
     63 H21         0.1849   -0.7745   -4.4286 H         1 <0>         0.1611
     64 H22         3.9004    0.2131   -6.1259 H         1 <0>         0.1950
     65 H23         3.9537   -3.0644   -1.5537 H         1 <0>         0.4047
     66 H24         5.6730   -3.1589   -3.6951 H         1 <0>         0.1076
     67 H25         6.0881   -5.0033   -5.3494 H         1 <0>         0.0899
     68 H26         4.3615   -5.4262   -5.2596 H         1 <0>         0.0749
     69 H27         2.8097   -4.2540   -6.5278 H         1 <0>         0.1221
     70 H28         2.2640   -2.5204   -8.1814 H         1 <0>         0.1166
     71 H29         3.8963   -0.8180   -8.7910 H         1 <0>         0.1209
     72 H30         7.2562   -3.3306   -5.1713 H         1 <0>         0.1518
     73 H31         8.8843   -1.6221   -5.7731 H         1 <0>         0.1163
     74 H32         8.3383    0.1120   -7.4267 H         1 <0>         0.1170
     75 H33         6.1605    0.1567   -8.5167 H         1 <0>         0.1223
     76 H34         5.2886   -4.6985   -1.7321 H         1 <0>         0.1021
     77 H35         4.8721   -5.9883   -2.8859 H         1 <0>         0.1005
     78 H36         9.4455   -6.0856   -1.5219 H         1 <0>         0.0564
     79 H37         9.1463   -7.6714   -2.2727 H         1 <0>         0.0691
     80 H38         9.2998   -6.2195   -3.2908 H         1 <0>         0.0824
     81 H39         6.3212   -8.0941   -1.9515 H         1 <0>         0.0604
     82 H40         7.2806   -7.5937   -0.5382 H         1 <0>         0.0756
     83 H41         5.8271   -6.6748   -0.9977 H         1 <0>         0.0750
@<TRIPOS>BOND
     1    1    2 1
     2    1   44 1
     3    1   45 1
     4    1   46 1
     5    2    3 1
     6    2    4 1
     7    2   47 1
     8    3   48 1
     9    3   49 1
    10    3   50 1
    11    4    5 1
    12    4   51 1
    13    4   52 1
    14    5    6 1
    15    5   12 1
    16    5   53 1
    17    6    7 1
    18    6   11 1
    19    6   54 1
    20    7    8 2
    21    7    9 1
    22    9   10 1
    23   10   55 1
    24   10   56 1
    25   10   57 1
    26   11   58 1
    27   12   13 am
    28   12   59 1
    29   13   14 2
    30   13   15 1
    31   15   16 1
    32   15   23 1
    33   15   60 1
    34   16   61 1
    35   16   62 1
    36   16   17 1
    37   17   18 2
    38   17   22 1
    39   18   19 1
    40   18   63 1
    41   19   21 2
    42   20   22 1
    43   21   64 1
    44   21   22 1
    45   23   24 am
    46   23   65 1
    47   24   25 2
    48   24   26 1
    49   26   27 1
    50   26   38 1
    51   26   66 1
    52   27   28 1
    53   27   67 1
    54   27   68 1
    55   28   33 ar
    56   28   29 ar
    57   29   30 ar
    58   29   69 1
    59   30   31 ar
    60   30   70 1
    61   31   32 ar
    62   31   71 1
    63   32   37 ar
    64   32   33 ar
    65   33   34 ar
    66   34   35 ar
    67   34   72 1
    68   35   36 ar
    69   35   73 1
    70   36   37 ar
    71   36   74 1
    72   37   75 1
    73   38   39 1
    74   38   76 1
    75   38   77 1
    76   39   40 2
    77   39   41 am
    78   41   42 1
    79   41   43 1
    80   42   78 1
    81   42   79 1
    82   42   80 1
    83   43   81 1
    84   43   82 1
    85   43   83 1
@<TRIPOS>MOLECULE
CHEMBL350425__33
   84    86     0     0     0
SMALL
USER_CHARGES

@<TRIPOS>ATOM
      1 C1         -0.6068   -1.0056    1.7096 C.3       1 <0>        -0.1510
      2 C2         -0.4336   -2.3516    1.0030 C.3       1 <0>        -0.0877
      3 C3          0.3253   -3.3143    1.9186 C.3       1 <0>        -0.1460
      4 C4         -1.8090   -2.9364    0.6757 C.3       1 <0>        -0.1225
      5 C5         -1.6367   -4.2194   -0.1398 C.3       1 <0>         0.1168
      6 C6         -3.0034   -4.8708   -0.3606 C.3       1 <0>         0.1113
      7 C7         -2.8336   -6.1345   -1.1639 C.2       1 <0>         0.4296
      8 O1         -3.3087   -6.2144   -2.2720 O.2       1 <0>        -0.4964
      9 O2         -2.1547   -7.1714   -0.6484 O.3       1 <0>        -0.3452
     10 C8         -2.0328   -8.3375   -1.4653 C.3       1 <0>         0.0323
     11 O3         -3.8531   -3.9665   -1.0692 O.3       1 <0>        -0.5136
     12 N1         -1.0342   -3.8971   -1.4357 N.am      1 <0>        -0.7241
     13 C9          0.3050   -3.7979   -1.5503 C.2       1 <0>         0.5128
     14 O4          1.0114   -3.9755   -0.5805 O.2       1 <0>        -0.4904
     15 C10         0.9247   -3.4663   -2.8833 C.3       1 <0>         0.1276
     16 C11         0.4112   -2.1063   -3.3603 C.3       1 <0>        -0.0735
     17 C12         0.9337   -1.8301   -4.7466 C.2       1 <0>         0.0452
     18 C13         2.1315   -1.2940   -5.0486 C.2       1 <0>         0.0334
     19 N2          2.1991   -1.2192   -6.4137 N.pl3     1 <0>        -0.5021
     20 H1          2.9414   -0.8759   -6.9353 H         1 <0>         0.4660
     21 C14         1.0394   -1.7126   -6.8987 C.cat     1 <0>         0.3177
     22 N3          0.2895   -2.0806   -5.8961 N.pl3     1 <0>        -0.4677
     23 N4          2.3824   -3.4170   -2.7455 N.am      1 <0>        -0.7137
     24 C15         3.1686   -3.6408   -3.8170 C.2       1 <0>         0.5274
     25 O5          2.6754   -3.9896   -4.8687 O.2       1 <0>        -0.5372
     26 C16         4.6605   -3.4576   -3.7084 C.3       1 <0>        -0.0976
     27 C17         5.3072   -3.7223   -5.0695 C.3       1 <0>        -0.0526
     28 C18         6.8062   -3.6384   -4.9382 C.ar      1 <0>        -0.0570
     29 C19         7.4611   -2.4983   -5.2907 C.ar      1 <0>        -0.1210
     30 C20         8.8464   -2.4021   -5.1764 C.ar      1 <0>        -0.1146
     31 C21         9.5852   -3.4457   -4.7092 C.ar      1 <0>        -0.0970
     32 C22         8.9443   -4.6388   -4.3354 C.ar      1 <0>        -0.0392
     33 C23         7.5344   -4.7345   -4.4459 C.ar      1 <0>        -0.0107
     34 C24         6.8929   -5.9261   -4.0664 C.ar      1 <0>        -0.1120
     35 C25         7.6310   -6.9671   -3.5938 C.ar      1 <0>        -0.1114
     36 C26         9.0167   -6.8708   -3.4790 C.ar      1 <0>        -0.1165
     37 C27         9.6734   -5.7377   -3.8493 C.ar      1 <0>        -0.1041
     38 C28         4.9676   -2.0249   -3.2678 C.3       1 <0>        -0.1377
     39 C29         6.3780   -1.9526   -2.7417 C.2       1 <0>         0.5087
     40 O6          7.0119   -2.9712   -2.5640 O.2       1 <0>        -0.4990
     41 N5          6.9349   -0.7561   -2.4687 N.am      1 <0>        -0.6174
     42 C30         8.3059   -0.6858   -1.9573 C.3       1 <0>         0.0871
     43 C31         6.1692    0.4743   -2.6834 C.3       1 <0>         0.0744
     44 H2          0.3731   -0.5889    1.9428 H         1 <0>         0.0547
     45 H3         -1.1474   -0.3197    1.0574 H         1 <0>         0.0506
     46 H4         -1.1694   -1.1492    2.6321 H         1 <0>         0.0571
     47 H5          0.1290   -2.2079    0.0806 H         1 <0>         0.0672
     48 H6          0.4486   -4.2732    1.4152 H         1 <0>         0.0702
     49 H7          1.3051   -2.8976    2.1517 H         1 <0>         0.0508
     50 H8         -0.2373   -3.4579    2.8410 H         1 <0>         0.0478
     51 H9         -2.3373   -3.1628    1.6019 H         1 <0>         0.0844
     52 H10        -2.3833   -2.2127    0.0974 H         1 <0>         0.0764
     53 H11        -0.9885   -4.9092    0.4007 H         1 <0>         0.1222
     54 H12        -3.4516   -5.1106    0.6036 H         1 <0>         0.1591
     55 H13        -3.0252   -8.7237   -1.6976 H         1 <0>         0.0662
     56 H14        -1.5171   -8.0807   -2.3906 H         1 <0>         0.0598
     57 H15        -1.4631   -9.0976   -0.9307 H         1 <0>         0.1087
     58 H16        -3.5160   -3.7091   -1.9382 H         1 <0>         0.3757
     59 H17        -1.5992   -3.7551   -2.2113 H         1 <0>         0.3956
     60 H18         0.6543   -4.2322   -3.6103 H         1 <0>         0.1231
     61 H19        -0.6786   -2.1152   -3.3779 H         1 <0>         0.1117
     62 H20         0.7573   -1.3283   -2.6799 H         1 <0>         0.1243
     63 H21         2.8925   -0.9825   -4.3484 H         1 <0>         0.2124
     64 H22         0.7775   -1.7931   -7.9434 H         1 <0>         0.2661
     65 H23         2.7817   -3.2232   -1.8830 H         1 <0>         0.4198
     66 H24         5.0599   -4.1571   -2.9741 H         1 <0>         0.1281
     67 H25         5.0281   -4.7170   -5.4171 H         1 <0>         0.0877
     68 H26         4.9630   -2.9770   -5.7865 H         1 <0>         0.0675
     69 H27         6.8985   -1.6558   -5.6650 H         1 <0>         0.1057
     70 H28         9.3415   -1.4861   -5.4630 H         1 <0>         0.1154
     71 H29        10.6583   -3.3570   -4.6266 H         1 <0>         0.1223
     72 H30         5.8197   -6.0149   -4.1492 H         1 <0>         0.1172
     73 H31         7.1355   -7.8816   -3.3029 H         1 <0>         0.1199
     74 H32         9.5788   -7.7117   -3.1006 H         1 <0>         0.1224
     75 H33        10.7477   -5.6777   -3.7555 H         1 <0>         0.1253
     76 H34         4.8625   -1.3525   -4.1192 H         1 <0>         0.0888
     77 H35         4.2715   -1.7290   -2.4830 H         1 <0>         0.0977
     78 H36         9.0022   -0.6146   -2.7929 H         1 <0>         0.0569
     79 H37         8.4116    0.1925   -1.3204 H         1 <0>         0.0693
     80 H38         8.5241   -1.5830   -1.3780 H         1 <0>         0.0783
     81 H39         5.1788    0.2242   -3.0639 H         1 <0>         0.0680
     82 H40         6.0710    1.0105   -1.7394 H         1 <0>         0.0667
     83 H41         6.6880    1.1037   -3.4064 H         1 <0>         0.0646
     84 H42        -0.5950   -2.4719   -5.9704 H         1 <0>         0.4635
@<TRIPOS>BOND
     1    1    2 1
     2    1   44 1
     3    1   45 1
     4    1   46 1
     5    2    3 1
     6    2    4 1
     7    2   47 1
     8    3   48 1
     9    3   49 1
    10    3   50 1
    11    4    5 1
    12    4   51 1
    13    4   52 1
    14    5    6 1
    15    5   12 1
    16    5   53 1
    17    6    7 1
    18    6   11 1
    19    6   54 1
    20    7    8 2
    21    7    9 1
    22    9   10 1
    23   10   55 1
    24   10   56 1
    25   10   57 1
    26   11   58 1
    27   12   13 am
    28   12   59 1
    29   13   14 2
    30   13   15 1
    31   15   16 1
    32   15   23 1
    33   15   60 1
    34   16   17 1
    35   16   61 1
    36   16   62 1
    37   17   22 1
    38   17   18 2
    39   18   19 1
    40   18   63 1
    41   19   20 1
    42   19   21 1
    43   21   22 2
    44   21   64 1
    45   22   84 1
    46   23   24 am
    47   23   65 1
    48   24   25 2
    49   24   26 1
    50   26   27 1
    51   26   38 1
    52   26   66 1
    53   27   28 1
    54   27   67 1
    55   27   68 1
    56   28   33 ar
    57   28   29 ar
    58   29   30 ar
    59   29   69 1
    60   30   31 ar
    61   30   70 1
    62   31   32 ar
    63   31   71 1
    64   32   37 ar
    65   32   33 ar
    66   33   34 ar
    67   34   35 ar
    68   34   72 1
    69   35   36 ar
    70   35   73 1
    71   36   37 ar
    72   36   74 1
    73   37   75 1
    74   38   39 1
    75   38   76 1
    76   38   77 1
    77   39   40 2
    78   39   41 am
    79   41   42 1
    80   41   43 1
    81   42   78 1
    82   42   79 1
    83   42   80 1
    84   43   81 1
    85   43   82 1
    86   43   83 1
@<TRIPOS>MOLECULE
CHEMBL350425__34
   83    85     0     0     0
SMALL
USER_CHARGES

@<TRIPOS>ATOM
      1 C1          0.5852   -3.0636    2.6000 C.3       1 <0>        -0.1485
      2 C2          0.8829   -4.0968    1.5116 C.3       1 <0>        -0.0905
      3 C3          1.7566   -5.2110    2.0913 C.3       1 <0>        -0.1417
      4 C4         -0.4307   -4.6923    1.0007 C.3       1 <0>        -0.1203
      5 C5         -0.1426   -5.6322   -0.1716 C.3       1 <0>         0.1174
      6 C6         -1.4384   -6.3227   -0.6019 C.3       1 <0>         0.1130
      7 C7         -1.1547   -7.2486   -1.7566 C.2       1 <0>         0.4289
      8 O1         -1.6417   -7.0294   -2.8405 O.2       1 <0>        -0.4917
      9 O2         -0.3610   -8.3168   -1.5811 O.3       1 <0>        -0.3477
     10 C8         -0.1354   -9.1513   -2.7189 C.3       1 <0>         0.0323
     11 O3         -2.3921   -5.3376   -1.0044 O.3       1 <0>        -0.5185
     12 N1          0.3961   -4.8612   -1.2948 N.am      1 <0>        -0.7285
     13 C9          1.7150   -4.5908   -1.3555 C.2       1 <0>         0.5131
     14 O4          2.4560   -4.9858   -0.4804 O.2       1 <0>        -0.5082
     15 C10         2.2692   -3.7977   -2.5109 C.3       1 <0>         0.1316
     16 C11         1.6072   -2.4188   -2.5471 C.3       1 <0>        -0.0462
     17 C12         1.9780   -1.7170   -3.8281 C.2       1 <0>        -0.0270
     18 C13         1.3942   -1.8797   -5.0306 C.2       1 <0>        -0.0038
     19 N2          2.0152   -1.0750   -5.9057 N.2       1 <0>        -0.4900
     20 H1          3.5671   -0.4561   -3.3033 H         1 <0>         0.4049
     21 C14         2.9618   -0.4198   -5.2911 C.2       1 <0>         0.2134
     22 N3          2.9692   -0.7872   -3.9916 N.pl3     1 <0>        -0.5560
     23 N4          3.7163   -3.6404   -2.3458 N.am      1 <0>        -0.7181
     24 C15         4.5380   -3.8181   -3.3992 C.2       1 <0>         0.5248
     25 O5          4.0789   -4.1023   -4.4852 O.2       1 <0>        -0.4932
     26 C16         6.0273   -3.6637   -3.2277 C.3       1 <0>        -0.0803
     27 C17         6.7358   -4.0889   -4.5154 C.3       1 <0>        -0.0755
     28 C18         8.2274   -4.0518   -4.3038 C.ar      1 <0>        -0.0651
     29 C19         8.9410   -2.9472   -4.6555 C.ar      1 <0>        -0.1151
     30 C20        10.3206   -2.8946   -4.4675 C.ar      1 <0>        -0.1129
     31 C21        10.9949   -3.9463   -3.9270 C.ar      1 <0>        -0.1090
     32 C22        10.2923   -5.1037   -3.5517 C.ar      1 <0>        -0.0495
     33 C23         8.8879   -5.1549   -3.7372 C.ar      1 <0>        -0.0460
     34 C24         8.1843   -6.3104   -3.3563 C.ar      1 <0>        -0.1072
     35 C25         8.8578   -7.3595   -2.8106 C.ar      1 <0>        -0.1149
     36 C26        10.2378   -7.3066   -2.6221 C.ar      1 <0>        -0.1147
     37 C27        10.9539   -6.2097   -2.9912 C.ar      1 <0>        -0.1074
     38 C28         6.3566   -2.2009   -2.9235 C.3       1 <0>        -0.1369
     39 C29         5.9945   -1.3470   -4.1113 C.2       1 <0>         0.4932
     40 O6          5.3639   -1.8236   -5.0311 O.2       1 <0>        -0.4865
     41 N5          6.3714   -0.0536   -4.1513 N.am      1 <0>        -0.6257
     42 C30         6.0193    0.7765   -5.3060 C.3       1 <0>         0.0780
     43 C31         7.1331    0.5222   -3.0403 C.3       1 <0>         0.0738
     44 H2          1.5210   -2.6393    2.9639 H         1 <0>         0.0524
     45 H3         -0.0372   -2.2698    2.1870 H         1 <0>         0.0505
     46 H4          0.0598   -3.5454    3.4245 H         1 <0>         0.0535
     47 H5          1.4083   -3.6149    0.6871 H         1 <0>         0.0727
     48 H6          1.2311   -5.6929    2.9158 H         1 <0>         0.0430
     49 H7          1.9686   -5.9471    1.3159 H         1 <0>         0.0717
     50 H8          2.6923   -4.7868    2.4553 H         1 <0>         0.0479
     51 H9         -0.9133   -5.2498    1.8034 H         1 <0>         0.0786
     52 H10        -1.0890   -3.8892    0.6693 H         1 <0>         0.0755
     53 H11         0.5848   -6.3837    0.1354 H         1 <0>         0.1173
     54 H12        -1.8392   -6.8964    0.2338 H         1 <0>         0.1541
     55 H13         0.5213   -9.9755   -2.4405 H         1 <0>         0.1054
     56 H14        -1.0868   -9.5483   -3.0727 H         1 <0>         0.0635
     57 H15         0.3316   -8.5665   -3.5115 H         1 <0>         0.0623
     58 H16        -2.1016   -4.7887   -1.7456 H         1 <0>         0.3816
     59 H17        -0.1965   -4.5453   -1.9948 H         1 <0>         0.3984
     60 H18         2.0649   -4.3234   -3.4437 H         1 <0>         0.1279
     61 H19         0.5245   -2.5341   -2.4963 H         1 <0>         0.0965
     62 H20         1.9500   -1.8288   -1.6971 H         1 <0>         0.0770
     63 H21         0.5702   -2.5420   -5.2517 H         1 <0>         0.1604
     64 H22         3.6268    0.2996   -5.7457 H         1 <0>         0.1944
     65 H23         4.0831   -3.4084   -1.4783 H         1 <0>         0.4025
     66 H24         6.3650   -4.2913   -2.4029 H         1 <0>         0.1015
     67 H25         6.4314   -5.1015   -4.7802 H         1 <0>         0.0800
     68 H26         6.4660   -3.4061   -5.3210 H         1 <0>         0.1107
     69 H27         8.4302   -2.0991   -5.0870 H         1 <0>         0.1160
     70 H28        10.8631   -2.0061   -4.7551 H         1 <0>         0.1215
     71 H29        12.0645   -3.8916   -3.7878 H         1 <0>         0.1260
     72 H30         7.1148   -6.3654   -3.4956 H         1 <0>         0.1263
     73 H31         8.3147   -8.2462   -2.5187 H         1 <0>         0.1227
     74 H32        10.7479   -8.1530   -2.1865 H         1 <0>         0.1231
     75 H33        12.0230   -6.1833   -2.8399 H         1 <0>         0.1266
     76 H34         5.7873   -1.8736   -2.0536 H         1 <0>         0.0926
     77 H35         7.4226   -2.1037   -2.7177 H         1 <0>         0.1051
     78 H36         5.0545    1.2524   -5.1306 H         1 <0>         0.0521
     79 H37         6.7816    1.5424   -5.4488 H         1 <0>         0.0726
     80 H38         5.9599    0.1523   -6.1976 H         1 <0>         0.0824
     81 H39         8.1996    0.3949   -3.2264 H         1 <0>         0.0604
     82 H40         6.9035    1.5842   -2.9541 H         1 <0>         0.0746
     83 H41         6.8631    0.0157   -2.1136 H         1 <0>         0.0708
@<TRIPOS>BOND
     1    1    2 1
     2    1   44 1
     3    1   45 1
     4    1   46 1
     5    2    3 1
     6    2    4 1
     7    2   47 1
     8    3   48 1
     9    3   49 1
    10    3   50 1
    11    4    5 1
    12    4   51 1
    13    4   52 1
    14    5    6 1
    15    5   12 1
    16    5   53 1
    17    6    7 1
    18    6   11 1
    19    6   54 1
    20    7    8 2
    21    7    9 1
    22    9   10 1
    23   10   55 1
    24   10   56 1
    25   10   57 1
    26   11   58 1
    27   12   13 am
    28   12   59 1
    29   13   14 2
    30   13   15 1
    31   15   16 1
    32   15   23 1
    33   15   60 1
    34   16   61 1
    35   16   62 1
    36   16   17 1
    37   17   18 2
    38   17   22 1
    39   18   19 1
    40   18   63 1
    41   19   21 2
    42   20   22 1
    43   21   64 1
    44   21   22 1
    45   23   24 am
    46   23   65 1
    47   24   25 2
    48   24   26 1
    49   26   27 1
    50   26   38 1
    51   26   66 1
    52   27   28 1
    53   27   67 1
    54   27   68 1
    55   28   33 ar
    56   28   29 ar
    57   29   30 ar
    58   29   69 1
    59   30   31 ar
    60   30   70 1
    61   31   32 ar
    62   31   71 1
    63   32   37 ar
    64   32   33 ar
    65   33   34 ar
    66   34   35 ar
    67   34   72 1
    68   35   36 ar
    69   35   73 1
    70   36   37 ar
    71   36   74 1
    72   37   75 1
    73   38   39 1
    74   38   76 1
    75   38   77 1
    76   39   40 2
    77   39   41 am
    78   41   42 1
    79   41   43 1
    80   42   78 1
    81   42   79 1
    82   42   80 1
    83   43   81 1
    84   43   82 1
    85   43   83 1
@<TRIPOS>MOLECULE
CHEMBL350425__35
   83    85     0     0     0
SMALL
USER_CHARGES

@<TRIPOS>ATOM
      1 C1          0.5668   -1.3528    2.8464 C.3       1 <0>        -0.1480
      2 C2          0.8351   -2.5185    1.8924 C.3       1 <0>        -0.0911
      3 C3          2.0759   -3.2832    2.3577 C.3       1 <0>        -0.1414
      4 C4         -0.3712   -3.4597    1.8852 C.3       1 <0>        -0.1195
      5 C5         -0.1561   -4.5564    0.8403 C.3       1 <0>         0.1174
      6 C6         -1.3019   -5.5673    0.9187 C.3       1 <0>         0.1129
      7 C7         -1.0901   -6.6475   -0.1104 C.2       1 <0>         0.4302
      8 O1         -1.8692   -6.7712   -1.0256 O.2       1 <0>        -0.4940
      9 O2         -0.0358   -7.4723   -0.0104 O.3       1 <0>        -0.3471
     10 C8          0.1030   -8.4732   -1.0209 C.3       1 <0>         0.0326
     11 O3         -2.5413   -4.9031    0.6640 O.3       1 <0>        -0.5191
     12 N1         -0.1236   -3.9578   -0.4964 N.am      1 <0>        -0.7306
     13 C9          1.0277   -3.4509   -0.9800 C.2       1 <0>         0.5107
     14 O4          2.0369   -3.4903   -0.3085 O.2       1 <0>        -0.5094
     15 C10         1.0611   -2.8351   -2.3550 C.3       1 <0>         0.1407
     16 C11         0.0866   -1.6568   -2.4100 C.3       1 <0>        -0.0353
     17 C12        -0.1718   -1.2853   -3.8474 C.2       1 <0>        -0.0102
     18 C13        -1.3801   -1.1797   -4.4325 C.2       1 <0>        -0.0604
     19 N2         -1.1594   -0.8232   -5.7356 N.pl3     1 <0>        -0.5770
     20 H1         -1.8365   -0.6708   -6.4132 H         1 <0>         0.4153
     21 C14         0.1771   -0.7233   -5.9014 C.2       1 <0>         0.2023
     22 N3          0.7611   -0.9962   -4.7667 N.2       1 <0>        -0.4302
     23 N4          2.4167   -2.3615   -2.6452 N.am      1 <0>        -0.7084
     24 C15         2.9826   -2.6283   -3.8390 C.2       1 <0>         0.5482
     25 O5          2.3739   -3.2700   -4.6688 O.2       1 <0>        -0.5135
     26 C16         4.3718   -2.1293   -4.1427 C.3       1 <0>        -0.0772
     27 C17         4.7273   -2.4616   -5.5933 C.3       1 <0>        -0.0832
     28 C18         6.1586   -2.0735   -5.8612 C.ar      1 <0>        -0.0599
     29 C19         6.4480   -0.8597   -6.4054 C.ar      1 <0>        -0.1167
     30 C20         7.7651   -0.4834   -6.6603 C.ar      1 <0>        -0.1119
     31 C21         8.8008   -1.3189   -6.3730 C.ar      1 <0>        -0.1135
     32 C22         8.5412   -2.5799   -5.8105 C.ar      1 <0>        -0.0496
     33 C23         7.2017   -2.9602   -5.5454 C.ar      1 <0>        -0.0476
     34 C24         6.9426   -4.2194   -4.9774 C.ar      1 <0>        -0.1045
     35 C25         7.9784   -5.0521   -4.6847 C.ar      1 <0>        -0.1184
     36 C26         9.2960   -4.6755   -4.9394 C.ar      1 <0>        -0.1155
     37 C27         9.5842   -3.4697   -5.5009 C.ar      1 <0>        -0.1090
     38 C28         4.4252   -0.6138   -3.9389 C.3       1 <0>        -0.1318
     39 C29         3.5265    0.0601   -4.9434 C.2       1 <0>         0.5158
     40 O6          2.9152   -0.6051   -5.7526 O.2       1 <0>        -0.4811
     41 N5          3.4020    1.4021   -4.9426 N.am      1 <0>        -0.6252
     42 C30         2.5284    2.0573   -5.9192 C.3       1 <0>         0.0950
     43 C31         4.1404    2.2057   -3.9652 C.3       1 <0>         0.0812
     44 H2          1.4262   -0.6823    2.8515 H         1 <0>         0.0529
     45 H3         -0.3171   -0.8080    2.5148 H         1 <0>         0.0502
     46 H4          0.4003   -1.7377    3.8525 H         1 <0>         0.0525
     47 H5          1.0016   -2.1336    0.8863 H         1 <0>         0.0746
     48 H6          1.9093   -3.6681    3.3638 H         1 <0>         0.0419
     49 H7          2.2670   -4.1136    1.6781 H         1 <0>         0.0717
     50 H8          2.9352   -2.6127    2.3629 H         1 <0>         0.0484
     51 H9         -0.4840   -3.9131    2.8699 H         1 <0>         0.0773
     52 H10        -1.2708   -2.8954    1.6397 H         1 <0>         0.0746
     53 H11         0.7893   -5.0630    1.0346 H         1 <0>         0.1168
     54 H12        -1.3261   -6.0127    1.9133 H         1 <0>         0.1537
     55 H13         0.9933   -9.0696   -0.8217 H         1 <0>         0.1056
     56 H14        -0.7753   -9.1186   -1.0161 H         1 <0>         0.0628
     57 H15         0.1969   -7.9947   -1.9958 H         1 <0>         0.0620
     58 H16        -2.5908   -4.4826   -0.2053 H         1 <0>         0.3810
     59 H17        -0.9308   -3.9263   -1.0334 H         1 <0>         0.3967
     60 H18         0.7709   -3.5814   -3.0945 H         1 <0>         0.1210
     61 H19        -0.8521   -1.9392   -1.9333 H         1 <0>         0.0796
     62 H20         0.5180   -0.8038   -1.8861 H         1 <0>         0.0795
     63 H21        -2.3390   -1.3449   -3.9639 H         1 <0>         0.1665
     64 H22         0.6793   -0.4576   -6.8199 H         1 <0>         0.1987
     65 H23         2.9070   -1.8559   -1.9782 H         1 <0>         0.3996
     66 H24         5.0852   -2.6112   -3.4742 H         1 <0>         0.0955
     67 H25         4.6032   -3.5313   -5.7618 H         1 <0>         0.0767
     68 H26         4.0694   -1.9093   -6.2643 H         1 <0>         0.1242
     69 H27         5.6446   -0.1784   -6.6434 H         1 <0>         0.1176
     70 H28         7.9673    0.4854   -7.0926 H         1 <0>         0.1201
     71 H29         9.8166   -1.0140   -6.5766 H         1 <0>         0.1243
     72 H30         5.9267   -4.5245   -4.7738 H         1 <0>         0.1275
     73 H31         7.7766   -6.0191   -4.2483 H         1 <0>         0.1215
     74 H32        10.0997   -5.3551   -4.6973 H         1 <0>         0.1216
     75 H33        10.6099   -3.1917   -5.6932 H         1 <0>         0.1252
     76 H34         4.0898   -0.3708   -2.9306 H         1 <0>         0.0884
     77 H35         5.4488   -0.2648   -4.0753 H         1 <0>         0.0974
     78 H36         1.5238    2.1463   -5.5057 H         1 <0>         0.0467
     79 H37         2.9172    3.0500   -6.1461 H         1 <0>         0.0610
     80 H38         2.4941    1.4631   -6.8323 H         1 <0>         0.0726
     81 H39         5.2102    2.0405   -4.0930 H         1 <0>         0.0587
     82 H40         3.9149    3.2611   -4.1179 H         1 <0>         0.0737
     83 H41         3.8455    1.9133   -2.9574 H         1 <0>         0.0572
@<TRIPOS>BOND
     1    1    2 1
     2    1   44 1
     3    1   45 1
     4    1   46 1
     5    2    3 1
     6    2    4 1
     7    2   47 1
     8    3   48 1
     9    3   49 1
    10    3   50 1
    11    4    5 1
    12    4   51 1
    13    4   52 1
    14    5    6 1
    15    5   12 1
    16    5   53 1
    17    6    7 1
    18    6   11 1
    19    6   54 1
    20    7    8 2
    21    7    9 1
    22    9   10 1
    23   10   55 1
    24   10   56 1
    25   10   57 1
    26   11   58 1
    27   12   13 am
    28   12   59 1
    29   13   14 2
    30   13   15 1
    31   15   16 1
    32   15   23 1
    33   15   60 1
    34   16   17 1
    35   16   61 1
    36   16   62 1
    37   17   22 1
    38   17   18 2
    39   18   19 1
    40   18   63 1
    41   19   20 1
    42   19   21 1
    43   21   22 2
    44   21   64 1
    45   23   24 am
    46   23   65 1
    47   24   25 2
    48   24   26 1
    49   26   27 1
    50   26   38 1
    51   26   66 1
    52   27   28 1
    53   27   67 1
    54   27   68 1
    55   28   33 ar
    56   28   29 ar
    57   29   30 ar
    58   29   69 1
    59   30   31 ar
    60   30   70 1
    61   31   32 ar
    62   31   71 1
    63   32   37 ar
    64   32   33 ar
    65   33   34 ar
    66   34   35 ar
    67   34   72 1
    68   35   36 ar
    69   35   73 1
    70   36   37 ar
    71   36   74 1
    72   37   75 1
    73   38   39 1
    74   38   76 1
    75   38   77 1
    76   39   40 2
    77   39   41 am
    78   41   42 1
    79   41   43 1
    80   42   78 1
    81   42   79 1
    82   42   80 1
    83   43   81 1
    84   43   82 1
    85   43   83 1
@<TRIPOS>MOLECULE
CHEMBL350425__36
   84    86     0     0     0
SMALL
USER_CHARGES

@<TRIPOS>ATOM
      1 C1          0.5027    1.4448    0.6325 C.3       1 <0>        -0.1523
      2 C2          0.7159   -0.0655    0.7539 C.3       1 <0>        -0.0840
      3 C3          1.7515   -0.3483    1.8441 C.3       1 <0>        -0.1424
      4 C4         -0.6078   -0.7395    1.1206 C.3       1 <0>        -0.1411
      5 C5         -0.4240   -2.2584    1.1200 C.3       1 <0>         0.1186
      6 C6         -1.7106   -2.9280    1.6069 C.3       1 <0>         0.1136
      7 C7         -1.9563   -2.5568    3.0466 C.2       1 <0>         0.4315
      8 O1         -2.9232   -1.8958    3.3435 O.2       1 <0>        -0.4837
      9 O2         -1.1011   -2.9604    3.9991 O.3       1 <0>        -0.3495
     10 C8         -1.3958   -2.5723    5.3425 C.3       1 <0>         0.0305
     11 O3         -2.8094   -2.4867    0.8069 O.3       1 <0>        -0.5278
     12 N1         -0.1211   -2.7131   -0.2394 N.am      1 <0>        -0.7101
     13 C9          1.1486   -2.6889   -0.6908 C.2       1 <0>         0.5094
     14 O4          2.0404   -2.2908    0.0283 O.2       1 <0>        -0.5006
     15 C10         1.4602   -3.1566   -2.0891 C.3       1 <0>         0.1295
     16 C11         1.0411   -4.6200   -2.2426 C.3       1 <0>        -0.0708
     17 C12         1.2385   -5.0517   -3.6729 C.2       1 <0>         0.0428
     18 C13         0.3646   -4.8719   -4.6816 C.2       1 <0>         0.0561
     19 N2          0.9376   -5.4092   -5.8026 N.pl3     1 <0>        -0.4989
     20 H1          0.5504   -5.4336   -6.6917 H         1 <0>         0.4664
     21 C14         2.1427   -5.8988   -5.4397 C.cat     1 <0>         0.3068
     22 N3          2.3180   -5.6770   -4.1657 N.pl3     1 <0>        -0.4739
     23 N4          2.8988   -3.0321   -2.3365 N.am      1 <0>        -0.7172
     24 C15         3.3566   -2.8963   -3.5968 C.2       1 <0>         0.5214
     25 O5          2.5776   -2.8773   -4.5262 O.2       1 <0>        -0.5223
     26 C16         4.8364   -2.7682   -3.8513 C.3       1 <0>        -0.0929
     27 C17         5.0852   -2.6279   -5.3544 C.3       1 <0>        -0.0585
     28 C18         4.4457   -1.3577   -5.8530 C.ar      1 <0>        -0.0802
     29 C19         3.2556   -1.4039   -6.5123 C.ar      1 <0>        -0.0773
     30 C20         2.6493   -0.2401   -6.9806 C.ar      1 <0>        -0.1267
     31 C21         3.2295    0.9769   -6.7927 C.ar      1 <0>        -0.1016
     32 C22         4.4580    1.0643   -6.1166 C.ar      1 <0>        -0.0557
     33 C23         5.0718   -0.1190   -5.6347 C.ar      1 <0>        -0.0447
     34 C24         6.2979   -0.0308   -4.9532 C.ar      1 <0>        -0.1198
     35 C25         6.8749    1.1865   -4.7603 C.ar      1 <0>        -0.1130
     36 C26         6.2681    2.3507   -5.2284 C.ar      1 <0>        -0.1147
     37 C27         5.0877    2.3028   -5.9041 C.ar      1 <0>        -0.1093
     38 C28         5.5534   -4.0152   -3.3299 C.3       1 <0>        -0.1364
     39 C29         7.0439   -3.8128   -3.4213 C.2       1 <0>         0.5125
     40 O6          7.4890   -2.7981   -3.9145 O.2       1 <0>        -0.5217
     41 N5          7.8824   -4.7593   -2.9549 N.am      1 <0>        -0.6178
     42 C30         9.3270   -4.5160   -2.9415 C.3       1 <0>         0.0782
     43 C31         7.3492   -6.0314   -2.4613 C.3       1 <0>         0.0725
     44 H2          1.4458    1.9249    0.3713 H         1 <0>         0.0565
     45 H3         -0.2350    1.6463   -0.1441 H         1 <0>         0.0518
     46 H4          0.1456    1.8389    1.5839 H         1 <0>         0.0553
     47 H5          1.0730   -0.4596   -0.1975 H         1 <0>         0.0719
     48 H6          1.9033   -1.4242    1.9306 H         1 <0>         0.0705
     49 H7          2.6945    0.1319    1.5828 H         1 <0>         0.0517
     50 H8          1.3944    0.0458    2.7955 H         1 <0>         0.0443
     51 H9         -0.9199   -0.4117    2.1122 H         1 <0>         0.0758
     52 H10        -1.3695   -0.4654    0.3908 H         1 <0>         0.0740
     53 H11         0.3982   -2.5252    1.7840 H         1 <0>         0.1207
     54 H12        -1.6114   -4.0102    1.5225 H         1 <0>         0.1463
     55 H13        -1.4173   -1.4846    5.4100 H         1 <0>         0.0648
     56 H14        -2.3671   -2.9736    5.6318 H         1 <0>         0.0655
     57 H15        -0.6278   -2.9626    6.0102 H         1 <0>         0.1085
     58 H16        -2.9570   -1.5314    0.8341 H         1 <0>         0.3918
     59 H17        -0.8343   -3.0315   -0.8145 H         1 <0>         0.4076
     60 H18         0.9138   -2.5449   -2.8070 H         1 <0>         0.1280
     61 H19         1.6503   -5.2431   -1.5877 H         1 <0>         0.1065
     62 H20        -0.0094   -4.7274   -1.9724 H         1 <0>         0.1255
     63 H21        -0.6027   -4.3958   -4.6182 H         1 <0>         0.2223
     64 H22         2.8465   -6.3891   -6.0960 H         1 <0>         0.2608
     65 H23         3.5218   -3.0473   -1.5932 H         1 <0>         0.4158
     66 H24         5.2188   -1.8871   -3.3359 H         1 <0>         0.1182
     67 H25         6.1581   -2.5930   -5.5434 H         1 <0>         0.1026
     68 H26         4.6520   -3.4817   -5.8756 H         1 <0>         0.0668
     69 H27         2.7744   -2.3570   -6.6751 H         1 <0>         0.1178
     70 H28         1.7049   -0.3046   -7.5006 H         1 <0>         0.1167
     71 H29         2.7482    1.8705   -7.1618 H         1 <0>         0.1239
     72 H30         6.7793   -0.9243   -4.5842 H         1 <0>         0.1491
     73 H31         7.8170    1.2515   -4.2363 H         1 <0>         0.1219
     74 H32         6.7471    3.3042   -5.0617 H         1 <0>         0.1232
     75 H33         4.6296    3.2131   -6.2618 H         1 <0>         0.1260
     76 H34         5.2732   -4.1877   -2.2907 H         1 <0>         0.1006
     77 H35         5.2663   -4.8776   -3.9315 H         1 <0>         0.0898
     78 H36         9.6224   -4.1360   -1.9635 H         1 <0>         0.0609
     79 H37         9.8543   -5.4484   -3.1434 H         1 <0>         0.0726
     80 H38         9.5791   -3.7828   -3.7076 H         1 <0>         0.0852
     81 H39         6.2628   -6.0288   -2.5496 H         1 <0>         0.0704
     82 H40         7.7597   -6.8509   -3.0513 H         1 <0>         0.0689
     83 H41         7.6284   -6.1612   -1.4157 H         1 <0>         0.0696
     84 H42         3.1041   -5.9266   -3.6552 H         1 <0>         0.4554
@<TRIPOS>BOND
     1    1    2 1
     2    1   44 1
     3    1   45 1
     4    1   46 1
     5    2    3 1
     6    2    4 1
     7    2   47 1
     8    3   48 1
     9    3   49 1
    10    3   50 1
    11    4    5 1
    12    4   51 1
    13    4   52 1
    14    5    6 1
    15    5   12 1
    16    5   53 1
    17    6    7 1
    18    6   11 1
    19    6   54 1
    20    7    8 2
    21    7    9 1
    22    9   10 1
    23   10   55 1
    24   10   56 1
    25   10   57 1
    26   11   58 1
    27   12   13 am
    28   12   59 1
    29   13   14 2
    30   13   15 1
    31   15   16 1
    32   15   23 1
    33   15   60 1
    34   16   17 1
    35   16   61 1
    36   16   62 1
    37   17   22 1
    38   17   18 2
    39   18   19 1
    40   18   63 1
    41   19   20 1
    42   19   21 1
    43   21   22 2
    44   21   64 1
    45   22   84 1
    46   23   24 am
    47   23   65 1
    48   24   25 2
    49   24   26 1
    50   26   27 1
    51   26   38 1
    52   26   66 1
    53   27   28 1
    54   27   67 1
    55   27   68 1
    56   28   33 ar
    57   28   29 ar
    58   29   30 ar
    59   29   69 1
    60   30   31 ar
    61   30   70 1
    62   31   32 ar
    63   31   71 1
    64   32   37 ar
    65   32   33 ar
    66   33   34 ar
    67   34   35 ar
    68   34   72 1
    69   35   36 ar
    70   35   73 1
    71   36   37 ar
    72   36   74 1
    73   37   75 1
    74   38   39 1
    75   38   76 1
    76   38   77 1
    77   39   40 2
    78   39   41 am
    79   41   42 1
    80   41   43 1
    81   42   78 1
    82   42   79 1
    83   42   80 1
    84   43   81 1
    85   43   82 1
    86   43   83 1
@<TRIPOS>MOLECULE
CHEMBL350425__37
   83    85     0     0     0
SMALL
USER_CHARGES

@<TRIPOS>ATOM
      1 C1          0.4742    1.4215    0.6342 C.3       1 <0>        -0.1500
      2 C2          0.7054   -0.0850    0.7676 C.3       1 <0>        -0.0868
      3 C3          1.7544   -0.3461    1.8503 C.3       1 <0>        -0.1404
      4 C4         -0.6071   -0.7702    1.1532 C.3       1 <0>        -0.1386
      5 C5         -0.4064   -2.2870    1.1649 C.3       1 <0>         0.1195
      6 C6         -1.6808   -2.9662    1.6704 C.3       1 <0>         0.1124
      7 C7         -1.9169   -2.5842    3.1089 C.2       1 <0>         0.4350
      8 O1         -2.8883   -1.9312    3.4089 O.2       1 <0>        -0.4888
      9 O2         -1.0482   -2.9693    4.0569 O.3       1 <0>        -0.3480
     10 C8         -1.3344   -2.5718    5.3993 C.3       1 <0>         0.0312
     11 O3         -2.7920   -2.5446    0.8770 O.3       1 <0>        -0.5268
     12 N1         -0.1114   -2.7510   -0.1929 N.am      1 <0>        -0.7149
     13 C9          1.1536   -2.7170   -0.6567 C.2       1 <0>         0.5129
     14 O4          2.0477   -2.3022    0.0500 O.2       1 <0>        -0.5109
     15 C10         1.4571   -3.1943   -2.0536 C.3       1 <0>         0.1386
     16 C11         1.0530   -4.6637   -2.1895 C.3       1 <0>        -0.0509
     17 C12         1.2416   -5.1066   -3.6175 C.2       1 <0>        -0.0140
     18 C13         2.3825   -5.5554   -4.1748 C.2       1 <0>        -0.0045
     19 N2          2.1304   -5.8457   -5.4598 N.2       1 <0>        -0.4842
     20 H1         -0.6442   -4.8734   -4.5005 H         1 <0>         0.4148
     21 C14         0.8767   -5.5938   -5.7200 C.2       1 <0>         0.1915
     22 N3          0.2848   -5.1356   -4.5959 N.pl3     1 <0>        -0.5592
     23 N4          2.8918   -3.0562   -2.3159 N.am      1 <0>        -0.7177
     24 C15         3.3361   -2.9273   -3.5818 C.2       1 <0>         0.5240
     25 O5          2.5481   -2.9256   -4.5038 O.2       1 <0>        -0.4991
     26 C16         4.8119   -2.7852   -3.8516 C.3       1 <0>        -0.0816
     27 C17         5.0447   -2.6563   -5.3583 C.3       1 <0>        -0.0635
     28 C18         4.3857   -1.3984   -5.8627 C.ar      1 <0>        -0.0698
     29 C19         3.1908   -1.4648   -6.5114 C.ar      1 <0>        -0.0751
     30 C20         2.5664   -0.3127   -6.9847 C.ar      1 <0>        -0.1181
     31 C21         3.1334    0.9128   -6.8127 C.ar      1 <0>        -0.1151
     32 C22         4.3664    1.0212   -6.1479 C.ar      1 <0>        -0.0567
     33 C23         4.9986   -0.1503   -5.6608 C.ar      1 <0>        -0.0456
     34 C24         6.2291   -0.0412   -4.9906 C.ar      1 <0>        -0.1109
     35 C25         6.7930    1.1847   -4.8134 C.ar      1 <0>        -0.1234
     36 C26         6.1682    2.3372   -5.2866 C.ar      1 <0>        -0.1196
     37 C27         4.9828    2.2690   -5.9518 C.ar      1 <0>        -0.1125
     38 C28         5.5477   -4.0192   -3.3256 C.3       1 <0>        -0.1365
     39 C29         7.0349   -3.8002   -3.4312 C.2       1 <0>         0.5173
     40 O6          7.4640   -2.7818   -3.9309 O.2       1 <0>        -0.5305
     41 N5          7.8883   -4.7361   -2.9704 N.am      1 <0>        -0.6210
     42 C30         9.3302   -4.4771   -2.9719 C.3       1 <0>         0.0812
     43 C31         7.3739   -6.0125   -2.4679 C.3       1 <0>         0.0739
     44 H2          1.4092    1.9097    0.3594 H         1 <0>         0.0559
     45 H3         -0.2731    1.6075   -0.1372 H         1 <0>         0.0508
     46 H4          0.1218    1.8206    1.5853 H         1 <0>         0.0524
     47 H5          1.0578   -0.4841   -0.1835 H         1 <0>         0.0765
     48 H6          1.4019    0.0530    2.8014 H         1 <0>         0.0406
     49 H7          1.9191   -1.4194    1.9454 H         1 <0>         0.0726
     50 H8          2.6894    0.1420    1.5756 H         1 <0>         0.0511
     51 H9         -0.9135   -0.4366    2.1447 H         1 <0>         0.0717
     52 H10        -1.3788   -0.5114    0.4282 H         1 <0>         0.0719
     53 H11         0.4250   -2.5383    1.8235 H         1 <0>         0.1185
     54 H12        -1.5703   -4.0479    1.5952 H         1 <0>         0.1468
     55 H13        -0.5559   -2.9473    6.0633 H         1 <0>         0.1070
     56 H14        -1.3675   -1.4839    5.4569 H         1 <0>         0.0633
     57 H15        -2.2984   -2.9811    5.7017 H         1 <0>         0.0636
     58 H16        -2.9500   -1.5908    0.8967 H         1 <0>         0.3895
     59 H17        -0.8264   -3.0827   -0.7582 H         1 <0>         0.4071
     60 H18         0.8971   -2.5956   -2.7719 H         1 <0>         0.1133
     61 H19         1.6753   -5.2738   -1.5347 H         1 <0>         0.0954
     62 H20         0.0064   -4.7802   -1.9081 H         1 <0>         0.0820
     63 H21         3.3337   -5.6628   -3.6747 H         1 <0>         0.1523
     64 H22         0.3919   -5.7321   -6.6751 H         1 <0>         0.2009
     65 H23         3.5220   -3.0575   -1.5785 H         1 <0>         0.4070
     66 H24         5.1892   -1.8951   -3.3482 H         1 <0>         0.1048
     67 H25         6.1153   -2.6107   -5.5579 H         1 <0>         0.0951
     68 H26         4.6167   -3.5199   -5.8673 H         1 <0>         0.0806
     69 H27         2.7198   -2.4251   -6.6616 H         1 <0>         0.1293
     70 H28         1.6185   -0.3932   -7.4961 H         1 <0>         0.1154
     71 H29         2.6382    1.7972   -7.1856 H         1 <0>         0.1196
     72 H30         6.7245   -0.9255   -4.6178 H         1 <0>         0.1509
     73 H31         7.7386    1.2657   -4.2981 H         1 <0>         0.1182
     74 H32         6.6370    3.2979   -5.1325 H         1 <0>         0.1179
     75 H33         4.5107    3.1704   -6.3136 H         1 <0>         0.1214
     76 H34         5.2781   -4.1858   -2.2827 H         1 <0>         0.0976
     77 H35         5.2657   -4.8900   -3.9173 H         1 <0>         0.1057
     78 H36         9.6310   -4.0908   -1.9981 H         1 <0>         0.0558
     79 H37         9.8657   -5.4042   -3.1762 H         1 <0>         0.0683
     80 H38         9.5667   -3.7435   -3.7427 H         1 <0>         0.0822
     81 H39         7.3172   -6.7292   -3.2871 H         1 <0>         0.0613
     82 H40         8.0420   -6.3949   -1.6962 H         1 <0>         0.0744
     83 H41         6.3798   -5.8631   -2.0465 H         1 <0>         0.0737
@<TRIPOS>BOND
     1    1    2 1
     2    1   44 1
     3    1   45 1
     4    1   46 1
     5    2    3 1
     6    2    4 1
     7    2   47 1
     8    3   48 1
     9    3   49 1
    10    3   50 1
    11    4    5 1
    12    4   51 1
    13    4   52 1
    14    5    6 1
    15    5   12 1
    16    5   53 1
    17    6    7 1
    18    6   11 1
    19    6   54 1
    20    7    8 2
    21    7    9 1
    22    9   10 1
    23   10   55 1
    24   10   56 1
    25   10   57 1
    26   11   58 1
    27   12   13 am
    28   12   59 1
    29   13   14 2
    30   13   15 1
    31   15   16 1
    32   15   23 1
    33   15   60 1
    34   16   61 1
    35   16   62 1
    36   16   17 1
    37   17   18 2
    38   17   22 1
    39   18   19 1
    40   18   63 1
    41   19   21 2
    42   20   22 1
    43   21   64 1
    44   21   22 1
    45   23   24 am
    46   23   65 1
    47   24   25 2
    48   24   26 1
    49   26   27 1
    50   26   38 1
    51   26   66 1
    52   27   28 1
    53   27   67 1
    54   27   68 1
    55   28   33 ar
    56   28   29 ar
    57   29   30 ar
    58   29   69 1
    59   30   31 ar
    60   30   70 1
    61   31   32 ar
    62   31   71 1
    63   32   37 ar
    64   32   33 ar
    65   33   34 ar
    66   34   35 ar
    67   34   72 1
    68   35   36 ar
    69   35   73 1
    70   36   37 ar
    71   36   74 1
    72   37   75 1
    73   38   39 1
    74   38   76 1
    75   38   77 1
    76   39   40 2
    77   39   41 am
    78   41   42 1
    79   41   43 1
    80   42   78 1
    81   42   79 1
    82   42   80 1
    83   43   81 1
    84   43   82 1
    85   43   83 1
@<TRIPOS>MOLECULE
CHEMBL350425__38
   83    85     0     0     0
SMALL
USER_CHARGES

@<TRIPOS>ATOM
      1 C1          0.4982    1.4187    0.6459 C.3       1 <0>        -0.1496
      2 C2          0.7177   -0.0907    0.7659 C.3       1 <0>        -0.0869
      3 C3          1.7591   -0.3699    1.8516 C.3       1 <0>        -0.1395
      4 C4         -0.6017   -0.7700    1.1382 C.3       1 <0>        -0.1385
      5 C5         -0.4121   -2.2882    1.1363 C.3       1 <0>         0.1199
      6 C6         -1.6940   -2.9628    1.6285 C.3       1 <0>         0.1123
      7 C7         -1.9350   -2.5930    3.0694 C.2       1 <0>         0.4353
      8 O1         -2.9031   -1.9358    3.3707 O.2       1 <0>        -0.4895
      9 O2         -1.0740   -2.9936    4.0181 O.3       1 <0>        -0.3483
     10 C8         -1.3645   -2.6069    5.3628 C.3       1 <0>         0.0313
     11 O3         -2.7980   -2.5255    0.8335 O.3       1 <0>        -0.5254
     12 N1         -0.1133   -2.7413   -0.2245 N.am      1 <0>        -0.7145
     13 C9          1.1543   -2.7121   -0.6814 C.2       1 <0>         0.5132
     14 O4          2.0477   -2.3107    0.0340 O.2       1 <0>        -0.5187
     15 C10         1.4617   -3.1782   -2.0811 C.3       1 <0>         0.1413
     16 C11         1.0476   -4.6432   -2.2333 C.3       1 <0>        -0.0392
     17 C12         1.2405   -5.0737   -3.6646 C.2       1 <0>         0.0136
     18 C13         1.9637   -6.1299   -4.0826 C.2       1 <0>        -0.0611
     19 N2          1.8720   -6.1572   -5.4481 N.pl3     1 <0>        -0.5718
     20 H1          2.2873   -6.8038   -6.0401 H         1 <0>         0.4157
     21 C14         1.0953   -5.1160   -5.8172 C.2       1 <0>         0.1942
     22 N3          0.7172   -4.4754   -4.7449 N.2       1 <0>        -0.4482
     23 N4          2.8987   -3.0480   -2.3347 N.am      1 <0>        -0.7161
     24 C15         3.3505   -2.9102   -3.5969 C.2       1 <0>         0.5145
     25 O5          2.5674   -2.8939   -4.5229 O.2       1 <0>        -0.4864
     26 C16         4.8287   -2.7763   -3.8577 C.3       1 <0>        -0.0847
     27 C17         5.0704   -2.6347   -5.3619 C.3       1 <0>        -0.0591
     28 C18         4.4238   -1.3669   -5.8574 C.ar      1 <0>        -0.0739
     29 C19         3.2313   -1.4176   -6.5119 C.ar      1 <0>        -0.0710
     30 C20         2.6183   -0.2561   -6.9772 C.ar      1 <0>        -0.1158
     31 C21         3.1944    0.9631   -6.7912 C.ar      1 <0>        -0.1143
     32 C22         4.4252    1.0553   -6.1200 C.ar      1 <0>        -0.0566
     33 C23         5.0458   -0.1257   -5.6411 C.ar      1 <0>        -0.0450
     34 C24         6.2742   -0.0328   -4.9646 C.ar      1 <0>        -0.1120
     35 C25         6.8471    1.1868   -4.7735 C.ar      1 <0>        -0.1234
     36 C26         6.2337    2.3487   -5.2387 C.ar      1 <0>        -0.1203
     37 C27         5.0508    2.2962   -5.9097 C.ar      1 <0>        -0.1116
     38 C28         5.5527   -4.0207   -3.3398 C.3       1 <0>        -0.1297
     39 C29         7.0421   -3.8124   -3.4374 C.2       1 <0>         0.5156
     40 O6          7.4811   -2.7955   -3.9314 O.2       1 <0>        -0.5294
     41 N5          7.8862   -4.7562   -2.9757 N.am      1 <0>        -0.6221
     42 C30         9.3299   -4.5078   -2.9691 C.3       1 <0>         0.0806
     43 C31         7.3600   -6.0306   -2.4804 C.3       1 <0>         0.0775
     44 H2          1.4383    1.9026    0.3807 H         1 <0>         0.0550
     45 H3         -0.2436    1.6176   -0.1275 H         1 <0>         0.0514
     46 H4          0.1437    1.8112    1.5990 H         1 <0>         0.0515
     47 H5          1.0723   -0.4832   -0.1871 H         1 <0>         0.0779
     48 H6          1.4046    0.0226    2.8046 H         1 <0>         0.0395
     49 H7          1.9155   -1.4452    1.9371 H         1 <0>         0.0727
     50 H8          2.6991    0.1140    1.5864 H         1 <0>         0.0500
     51 H9         -0.9109   -0.4436    2.1312 H         1 <0>         0.0703
     52 H10        -1.3677   -0.4986    0.4117 H         1 <0>         0.0725
     53 H11         0.4140   -2.5520    1.7967 H         1 <0>         0.1169
     54 H12        -1.5910   -4.0446    1.5434 H         1 <0>         0.1468
     55 H13        -0.5921   -2.9945    6.0272 H         1 <0>         0.1062
     56 H14        -1.3899   -1.5193    5.4307 H         1 <0>         0.0629
     57 H15        -2.3329   -3.0120    5.6563 H         1 <0>         0.0632
     58 H16        -2.9491   -1.5708    0.8616 H         1 <0>         0.3891
     59 H17        -0.8278   -3.0623   -0.7966 H         1 <0>         0.4099
     60 H18         0.9098   -2.5684   -2.7965 H         1 <0>         0.1233
     61 H19         1.6619   -5.2640   -1.5812 H         1 <0>         0.0793
     62 H20        -0.0013   -4.7547   -1.9586 H         1 <0>         0.0845
     63 H21         2.5112   -6.8222   -3.4602 H         1 <0>         0.1648
     64 H22         0.8279   -4.8585   -6.8314 H         1 <0>         0.1981
     65 H23         3.5250   -3.0611   -1.5941 H         1 <0>         0.4031
     66 H24         5.2099   -1.8939   -3.3438 H         1 <0>         0.1040
     67 H25         6.1424   -2.5955   -5.5555 H         1 <0>         0.0939
     68 H26         4.6384   -3.4900   -5.8814 H         1 <0>         0.0704
     69 H27         2.7533   -2.3726   -6.6732 H         1 <0>         0.1286
     70 H28         1.6721   -0.3242   -7.4935 H         1 <0>         0.1175
     71 H29         2.7080    1.8549   -7.1581 H         1 <0>         0.1201
     72 H30         6.7608   -0.9245   -4.5979 H         1 <0>         0.1496
     73 H31         7.7910    1.2554   -4.2533 H         1 <0>         0.1176
     74 H32         6.7095    3.3041   -5.0735 H         1 <0>         0.1178
     75 H33         4.5875    3.2048   -6.2651 H         1 <0>         0.1217
     76 H34         5.2775   -4.1946   -2.2996 H         1 <0>         0.0974
     77 H35         5.2665   -4.8840   -3.9405 H         1 <0>         0.0984
     78 H36         9.6288   -4.1277   -1.9922 H         1 <0>         0.0562
     79 H37         9.8596   -5.4380   -3.1746 H         1 <0>         0.0682
     80 H38         9.5756   -3.7728   -3.7357 H         1 <0>         0.0820
     81 H39         6.8142   -6.5333   -3.2789 H         1 <0>         0.0614
     82 H40         8.1858   -6.6615   -2.1516 H         1 <0>         0.0800
     83 H41         6.6884   -5.8452   -1.6421 H         1 <0>         0.0639
@<TRIPOS>BOND
     1    1    2 1
     2    1   44 1
     3    1   45 1
     4    1   46 1
     5    2    3 1
     6    2    4 1
     7    2   47 1
     8    3   48 1
     9    3   49 1
    10    3   50 1
    11    4    5 1
    12    4   51 1
    13    4   52 1
    14    5    6 1
    15    5   12 1
    16    5   53 1
    17    6    7 1
    18    6   11 1
    19    6   54 1
    20    7    8 2
    21    7    9 1
    22    9   10 1
    23   10   55 1
    24   10   56 1
    25   10   57 1
    26   11   58 1
    27   12   13 am
    28   12   59 1
    29   13   14 2
    30   13   15 1
    31   15   16 1
    32   15   23 1
    33   15   60 1
    34   16   17 1
    35   16   61 1
    36   16   62 1
    37   17   22 1
    38   17   18 2
    39   18   19 1
    40   18   63 1
    41   19   20 1
    42   19   21 1
    43   21   22 2
    44   21   64 1
    45   23   24 am
    46   23   65 1
    47   24   25 2
    48   24   26 1
    49   26   27 1
    50   26   38 1
    51   26   66 1
    52   27   28 1
    53   27   67 1
    54   27   68 1
    55   28   33 ar
    56   28   29 ar
    57   29   30 ar
    58   29   69 1
    59   30   31 ar
    60   30   70 1
    61   31   32 ar
    62   31   71 1
    63   32   37 ar
    64   32   33 ar
    65   33   34 ar
    66   34   35 ar
    67   34   72 1
    68   35   36 ar
    69   35   73 1
    70   36   37 ar
    71   36   74 1
    72   37   75 1
    73   38   39 1
    74   38   76 1
    75   38   77 1
    76   39   40 2
    77   39   41 am
    78   41   42 1
    79   41   43 1
    80   42   78 1
    81   42   79 1
    82   42   80 1
    83   43   81 1
    84   43   82 1
    85   43   83 1
@<TRIPOS>MOLECULE
CHEMBL350425__39
   84    86     0     0     0
SMALL
USER_CHARGES

@<TRIPOS>ATOM
      1 C1         -0.0867    1.5266   -0.0605 C.3       1 <0>        -0.1506
      2 C2         -0.0585   -0.0031   -0.0664 C.3       1 <0>        -0.0834
      3 C3          0.6673   -0.5046    1.1836 C.3       1 <0>        -0.1408
      4 C4         -1.4913   -0.5396   -0.0739 C.3       1 <0>        -0.1412
      5 C5         -1.4646   -2.0637   -0.2054 C.3       1 <0>         0.1190
      6 C6         -2.8885   -2.6109   -0.0878 C.3       1 <0>         0.1132
      7 C7         -3.4182   -2.3395    1.2967 C.2       1 <0>         0.4318
      8 O1         -4.3565   -1.5937    1.4491 O.2       1 <0>        -0.4839
      9 O2         -2.8476   -2.9263    2.3606 O.3       1 <0>        -0.3494
     10 C8         -3.4010   -2.6237    3.6428 C.3       1 <0>         0.0306
     11 O3         -3.7261   -1.9704   -1.0523 O.3       1 <0>        -0.5274
     12 N1         -0.9062   -2.4316   -1.5089 N.am      1 <0>        -0.7106
     13 C9          0.4289   -2.5236   -1.6684 C.2       1 <0>         0.5115
     14 O4          1.1681   -2.3019   -0.7328 O.2       1 <0>        -0.5030
     15 C10         1.0033   -2.9021   -3.0092 C.3       1 <0>         0.1323
     16 C11         0.4867   -4.2843   -3.4136 C.3       1 <0>        -0.0711
     17 C12         0.9614   -4.6103   -4.8063 C.2       1 <0>         0.0455
     18 C13         0.3632   -4.2377   -5.9538 C.2       1 <0>         0.0540
     19 N2          1.1205   -4.7410   -6.9769 N.pl3     1 <0>        -0.4989
     20 H1          0.9461   -4.6402   -7.9257 H         1 <0>         0.4655
     21 C14         2.1560   -5.4042   -6.4185 C.cat     1 <0>         0.3069
     22 N3          2.0570   -5.3175   -5.1201 N.pl3     1 <0>        -0.4718
     23 N4          2.4655   -2.9333   -2.9229 N.am      1 <0>        -0.7213
     24 C15         3.2101   -2.7451   -4.0304 C.2       1 <0>         0.5313
     25 O5          2.6713   -2.6271   -5.1105 O.2       1 <0>        -0.5219
     26 C16         4.7122   -2.6814   -3.9267 C.3       1 <0>        -0.0841
     27 C17         5.3044   -2.3482   -5.2975 C.3       1 <0>        -0.0639
     28 C18         6.8084   -2.4051   -5.2222 C.ar      1 <0>        -0.0810
     29 C19         7.5254   -1.2708   -4.9932 C.ar      1 <0>        -0.1061
     30 C20         8.9164   -1.3038   -4.9204 C.ar      1 <0>        -0.1133
     31 C21         9.5989   -2.4712   -5.0764 C.ar      1 <0>        -0.1010
     32 C22         8.8931   -3.6626   -5.3142 C.ar      1 <0>        -0.0506
     33 C23         7.4777   -3.6301   -5.3822 C.ar      1 <0>        -0.0433
     34 C24         6.7715   -4.8229   -5.6142 C.ar      1 <0>        -0.1189
     35 C25         7.4536   -5.9909   -5.7643 C.ar      1 <0>        -0.1103
     36 C26         8.8451   -6.0239   -5.6910 C.ar      1 <0>        -0.1201
     37 C27         9.5629   -4.8869   -5.4810 C.ar      1 <0>        -0.0955
     38 C28         5.1085   -1.5971   -2.9226 C.3       1 <0>        -0.1446
     39 C29         4.4648   -0.2916   -3.3130 C.2       1 <0>         0.5087
     40 O6          3.8295   -0.2128   -4.3431 O.2       1 <0>        -0.5250
     41 N5          4.5952    0.7885   -2.5174 N.am      1 <0>        -0.6146
     42 C30         3.9695    2.0576   -2.8969 C.3       1 <0>         0.0841
     43 C31         5.3626    0.6933   -1.2731 C.3       1 <0>         0.0699
     44 H2          0.9340    1.9088   -0.0552 H         1 <0>         0.0545
     45 H3         -0.6038    1.8838   -0.9511 H         1 <0>         0.0516
     46 H4         -0.6105    1.8769    0.8289 H         1 <0>         0.0551
     47 H5          0.4653   -0.3535   -0.9558 H         1 <0>         0.0720
     48 H6          0.6874   -1.5944    1.1795 H         1 <0>         0.0710
     49 H7          1.6881   -0.1224    1.1890 H         1 <0>         0.0499
     50 H8          0.1435   -0.1543    2.0730 H         1 <0>         0.0439
     51 H9         -1.9874   -0.2640    0.8568 H         1 <0>         0.0756
     52 H10        -2.0351   -0.1118   -0.9161 H         1 <0>         0.0737
     53 H11        -0.8465   -2.4860    0.5869 H         1 <0>         0.1204
     54 H12        -2.8810   -3.6856   -0.2697 H         1 <0>         0.1465
     55 H13        -3.3289   -1.5517    3.8259 H         1 <0>         0.0645
     56 H14        -4.4477   -2.9269    3.6675 H         1 <0>         0.0654
     57 H15        -2.8486   -3.1619    4.4131 H         1 <0>         0.1085
     58 H16        -3.7801   -1.0102   -0.9505 H         1 <0>         0.3914
     59 H17        -1.4974   -2.6090   -2.2572 H         1 <0>         0.4078
     60 H18         0.6990   -2.1679   -3.7552 H         1 <0>         0.1256
     61 H19         0.8650   -5.0319   -2.7165 H         1 <0>         0.1060
     62 H20        -0.6031   -4.2855   -3.3916 H         1 <0>         0.1237
     63 H21        -0.5407   -3.6542   -6.0486 H         1 <0>         0.2210
     64 H22         2.9385   -5.9177   -6.9572 H         1 <0>         0.2596
     65 H23         2.8977   -3.0895   -2.0687 H         1 <0>         0.4134
     66 H24         5.0943   -3.6452   -3.5903 H         1 <0>         0.1039
     67 H25         4.9498   -3.0712   -6.0320 H         1 <0>         0.0757
     68 H26         4.9931   -1.3465   -5.5940 H         1 <0>         0.1057
     69 H27         7.0083   -0.3311   -4.8666 H         1 <0>         0.1186
     70 H28         9.4614   -0.3894   -4.7377 H         1 <0>         0.1261
     71 H29        10.6773   -2.4816   -5.0181 H         1 <0>         0.1303
     72 H30         5.6931   -4.8127   -5.6727 H         1 <0>         0.1156
     73 H31         6.9084   -6.9060   -5.9425 H         1 <0>         0.1210
     74 H32         9.3619   -6.9643   -5.8133 H         1 <0>         0.1257
     75 H33        10.6408   -4.9276   -5.4274 H         1 <0>         0.1302
     76 H34         4.7725   -1.8842   -1.9262 H         1 <0>         0.0991
     77 H35         6.1923   -1.4818   -2.9213 H         1 <0>         0.1131
     78 H36         2.9612    2.1029   -2.4854 H         1 <0>         0.0552
     79 H37         4.5598    2.8855   -2.5040 H         1 <0>         0.0728
     80 H38         3.9220    2.1287   -3.9835 H         1 <0>         0.0777
     81 H39         5.7490   -0.3197   -1.1611 H         1 <0>         0.0786
     82 H40         6.1938    1.3978   -1.3041 H         1 <0>         0.0681
     83 H41         4.7161    0.9311   -0.4284 H         1 <0>         0.0673
     84 H42         2.6769   -5.7051   -4.4826 H         1 <0>         0.4573
@<TRIPOS>BOND
     1    1    2 1
     2    1   44 1
     3    1   45 1
     4    1   46 1
     5    2    3 1
     6    2    4 1
     7    2   47 1
     8    3   48 1
     9    3   49 1
    10    3   50 1
    11    4    5 1
    12    4   51 1
    13    4   52 1
    14    5    6 1
    15    5   12 1
    16    5   53 1
    17    6    7 1
    18    6   11 1
    19    6   54 1
    20    7    8 2
    21    7    9 1
    22    9   10 1
    23   10   55 1
    24   10   56 1
    25   10   57 1
    26   11   58 1
    27   12   13 am
    28   12   59 1
    29   13   14 2
    30   13   15 1
    31   15   16 1
    32   15   23 1
    33   15   60 1
    34   16   17 1
    35   16   61 1
    36   16   62 1
    37   17   22 1
    38   17   18 2
    39   18   19 1
    40   18   63 1
    41   19   20 1
    42   19   21 1
    43   21   22 2
    44   21   64 1
    45   22   84 1
    46   23   24 am
    47   23   65 1
    48   24   25 2
    49   24   26 1
    50   26   27 1
    51   26   38 1
    52   26   66 1
    53   27   28 1
    54   27   67 1
    55   27   68 1
    56   28   33 ar
    57   28   29 ar
    58   29   30 ar
    59   29   69 1
    60   30   31 ar
    61   30   70 1
    62   31   32 ar
    63   31   71 1
    64   32   37 ar
    65   32   33 ar
    66   33   34 ar
    67   34   35 ar
    68   34   72 1
    69   35   36 ar
    70   35   73 1
    71   36   37 ar
    72   36   74 1
    73   37   75 1
    74   38   39 1
    75   38   76 1
    76   38   77 1
    77   39   40 2
    78   39   41 am
    79   41   42 1
    80   41   43 1
    81   42   78 1
    82   42   79 1
    83   42   80 1
    84   43   81 1
    85   43   82 1
    86   43   83 1
@<TRIPOS>MOLECULE
CHEMBL350425__40
   83    85     0     0     0
SMALL
USER_CHARGES

@<TRIPOS>ATOM
      1 C1         -0.1100    1.5208   -0.0724 C.3       1 <0>        -0.1483
      2 C2         -0.0723   -0.0087   -0.0718 C.3       1 <0>        -0.0862
      3 C3          0.6578   -0.5004    1.1796 C.3       1 <0>        -0.1388
      4 C4         -1.5018   -0.5541   -0.0757 C.3       1 <0>        -0.1387
      5 C5         -1.4657   -2.0786   -0.2008 C.3       1 <0>         0.1199
      6 C6         -2.8862   -2.6340   -0.0795 C.3       1 <0>         0.1119
      7 C7         -3.4162   -2.3600    1.3043 C.2       1 <0>         0.4353
      8 O1         -4.3590   -1.6194    1.4545 O.2       1 <0>        -0.4890
      9 O2         -2.8410   -2.9388    2.3701 O.3       1 <0>        -0.3479
     10 C8         -3.3951   -2.6342    3.6516 C.3       1 <0>         0.0312
     11 O3         -3.7286   -2.0028   -1.0459 O.3       1 <0>        -0.5264
     12 N1         -0.9063   -2.4485   -1.5032 N.am      1 <0>        -0.7155
     13 C9          0.4293   -2.5329   -1.6636 C.2       1 <0>         0.5150
     14 O4          1.1679   -2.3026   -0.7297 O.2       1 <0>        -0.5132
     15 C10         1.0048   -2.9135   -3.0034 C.3       1 <0>         0.1415
     16 C11         0.4963   -4.3005   -3.4015 C.3       1 <0>        -0.0507
     17 C12         0.9717   -4.6295   -4.7931 C.2       1 <0>        -0.0141
     18 C13         2.1601   -5.1662   -5.1295 C.2       1 <0>        -0.0004
     19 N2          2.1915   -5.3017   -6.4636 N.2       1 <0>        -0.4845
     20 H1         -0.6170   -4.0774   -6.0427 H         1 <0>         0.4139
     21 C14         1.0677   -4.8694   -6.9666 C.2       1 <0>         0.1910
     22 N3          0.2763   -4.4457   -5.9577 N.pl3     1 <0>        -0.5599
     23 N4          2.4671   -2.9353   -2.9183 N.am      1 <0>        -0.7216
     24 C15         3.2095   -2.7472   -4.0273 C.2       1 <0>         0.5320
     25 O5          2.6687   -2.6307   -5.1066 O.2       1 <0>        -0.4925
     26 C16         4.7117   -2.6815   -3.9263 C.3       1 <0>        -0.0789
     27 C17         5.3010   -2.3470   -5.2981 C.3       1 <0>        -0.0699
     28 C18         6.8052   -2.4020   -5.2256 C.ar      1 <0>        -0.0628
     29 C19         7.5212   -1.2669   -4.9976 C.ar      1 <0>        -0.1191
     30 C20         8.9124   -1.2981   -4.9273 C.ar      1 <0>        -0.1130
     31 C21         9.5961   -2.4646   -5.0851 C.ar      1 <0>        -0.1109
     32 C22         8.8914   -3.6568   -5.3220 C.ar      1 <0>        -0.0496
     33 C23         7.4757   -3.6261   -5.3873 C.ar      1 <0>        -0.0464
     34 C24         6.7706   -4.8197   -5.6185 C.ar      1 <0>        -0.1025
     35 C25         7.4540   -5.9868   -5.7703 C.ar      1 <0>        -0.1160
     36 C26         8.8456   -6.0181   -5.6996 C.ar      1 <0>        -0.1141
     37 C27         9.5624   -4.8802   -5.4905 C.ar      1 <0>        -0.1105
     38 C28         5.1085   -1.5971   -2.9226 C.3       1 <0>        -0.1408
     39 C29         4.4648   -0.2916   -3.3130 C.2       1 <0>         0.5092
     40 O6          3.8295   -0.2128   -4.3431 O.2       1 <0>        -0.5163
     41 N5          4.5952    0.7885   -2.5174 N.am      1 <0>        -0.6206
     42 C30         3.9695    2.0576   -2.8969 C.3       1 <0>         0.0862
     43 C31         5.3626    0.6933   -1.2731 C.3       1 <0>         0.0758
     44 H2          0.9084    1.9094   -0.0697 H         1 <0>         0.0540
     45 H3         -0.6302    1.8711   -0.9640 H         1 <0>         0.0506
     46 H4         -0.6352    1.8717    0.8160 H         1 <0>         0.0521
     47 H5          0.4528   -0.3596   -0.9602 H         1 <0>         0.0766
     48 H6          0.1327   -0.1495    2.0680 H         1 <0>         0.0401
     49 H7          0.6846   -1.5901    1.1800 H         1 <0>         0.0730
     50 H8          1.6762   -0.1118    1.1823 H         1 <0>         0.0494
     51 H9         -1.9987   -0.2776    0.8542 H         1 <0>         0.0714
     52 H10        -2.0490   -0.1332   -0.9191 H         1 <0>         0.0716
     53 H11        -0.8443   -2.4936    0.5927 H         1 <0>         0.1183
     54 H12        -2.8721   -3.7094   -0.2569 H         1 <0>         0.1470
     55 H13        -2.8386   -3.1657    4.4237 H         1 <0>         0.1070
     56 H14        -3.3294   -1.5609    3.8301 H         1 <0>         0.0631
     57 H15        -4.4399   -2.9438    3.6786 H         1 <0>         0.0636
     58 H16        -3.7884   -1.0426   -0.9482 H         1 <0>         0.3892
     59 H17        -1.4970   -2.6327   -2.2502 H         1 <0>         0.4072
     60 H18         0.6952   -2.1843   -3.7521 H         1 <0>         0.1110
     61 H19         0.8799   -5.0428   -2.7015 H         1 <0>         0.0950
     62 H20        -0.5934   -4.3084   -3.3784 H         1 <0>         0.0804
     63 H21         2.9496   -5.4396   -4.4451 H         1 <0>         0.1519
     64 H22         0.8116   -4.8558   -8.0158 H         1 <0>         0.2006
     65 H23         2.9011   -3.0851   -2.0638 H         1 <0>         0.4042
     66 H24         5.0957   -3.6450   -3.5911 H         1 <0>         0.1014
     67 H25         4.9459   -3.0703   -6.0322 H         1 <0>         0.0879
     68 H26         4.9878   -1.3457   -5.5937 H         1 <0>         0.1009
     69 H27         7.0031   -0.3280   -4.8696 H         1 <0>         0.1162
     70 H28         9.4564   -0.3831   -4.7453 H         1 <0>         0.1207
     71 H29        10.6745   -2.4736   -5.0288 H         1 <0>         0.1249
     72 H30         5.6922   -4.8109   -5.6750 H         1 <0>         0.1319
     73 H31         6.9097   -6.9025   -5.9478 H         1 <0>         0.1231
     74 H32         9.3635   -6.9577   -5.8232 H         1 <0>         0.1216
     75 H33        10.6405   -4.9196   -5.4389 H         1 <0>         0.1250
     76 H34         4.7728   -1.8840   -1.9261 H         1 <0>         0.0962
     77 H35         6.1924   -1.4819   -2.9217 H         1 <0>         0.1078
     78 H36         2.9612    2.1029   -2.4854 H         1 <0>         0.0520
     79 H37         4.5598    2.8855   -2.5040 H         1 <0>         0.0684
     80 H38         3.9220    2.1287   -3.9835 H         1 <0>         0.0764
     81 H39         6.4061    0.9392   -1.4701 H         1 <0>         0.0584
     82 H40         4.9566    1.3919   -0.5415 H         1 <0>         0.0725
     83 H41         5.2961   -0.3219   -0.8819 H         1 <0>         0.0735
@<TRIPOS>BOND
     1    1    2 1
     2    1   44 1
     3    1   45 1
     4    1   46 1
     5    2    3 1
     6    2    4 1
     7    2   47 1
     8    3   48 1
     9    3   49 1
    10    3   50 1
    11    4    5 1
    12    4   51 1
    13    4   52 1
    14    5    6 1
    15    5   12 1
    16    5   53 1
    17    6    7 1
    18    6   11 1
    19    6   54 1
    20    7    8 2
    21    7    9 1
    22    9   10 1
    23   10   55 1
    24   10   56 1
    25   10   57 1
    26   11   58 1
    27   12   13 am
    28   12   59 1
    29   13   14 2
    30   13   15 1
    31   15   16 1
    32   15   23 1
    33   15   60 1
    34   16   61 1
    35   16   62 1
    36   16   17 1
    37   17   18 2
    38   17   22 1
    39   18   19 1
    40   18   63 1
    41   19   21 2
    42   20   22 1
    43   21   64 1
    44   21   22 1
    45   23   24 am
    46   23   65 1
    47   24   25 2
    48   24   26 1
    49   26   27 1
    50   26   38 1
    51   26   66 1
    52   27   28 1
    53   27   67 1
    54   27   68 1
    55   28   33 ar
    56   28   29 ar
    57   29   30 ar
    58   29   69 1
    59   30   31 ar
    60   30   70 1
    61   31   32 ar
    62   31   71 1
    63   32   37 ar
    64   32   33 ar
    65   33   34 ar
    66   34   35 ar
    67   34   72 1
    68   35   36 ar
    69   35   73 1
    70   36   37 ar
    71   36   74 1
    72   37   75 1
    73   38   39 1
    74   38   76 1
    75   38   77 1
    76   39   40 2
    77   39   41 am
    78   41   42 1
    79   41   43 1
    80   42   78 1
    81   42   79 1
    82   42   80 1
    83   43   81 1
    84   43   82 1
    85   43   83 1
@<TRIPOS>MOLECULE
CHEMBL350425__41
   83    85     0     0     0
SMALL
USER_CHARGES

@<TRIPOS>ATOM
      1 C1         -0.0988    1.5250   -0.0654 C.3       1 <0>        -0.1479
      2 C2         -0.0649   -0.0047   -0.0667 C.3       1 <0>        -0.0863
      3 C3          0.6644   -0.4997    1.1839 C.3       1 <0>        -0.1379
      4 C4         -1.4958   -0.5465   -0.0707 C.3       1 <0>        -0.1386
      5 C5         -1.4635   -2.0709   -0.1977 C.3       1 <0>         0.1203
      6 C6         -2.8853   -2.6229   -0.0766 C.3       1 <0>         0.1119
      7 C7         -3.4142   -2.3493    1.3077 C.2       1 <0>         0.4356
      8 O1         -4.3551   -1.6066    1.4591 O.2       1 <0>        -0.4897
      9 O2         -2.8400   -2.9308    2.3726 O.3       1 <0>        -0.3482
     10 C8         -3.3929   -2.6265    3.6547 C.3       1 <0>         0.0314
     11 O3         -3.7265   -1.9884   -1.0419 O.3       1 <0>        -0.5249
     12 N1         -0.9054   -2.4406   -1.5008 N.am      1 <0>        -0.7149
     13 C9          0.4298   -2.5281   -1.6618 C.2       1 <0>         0.5153
     14 O4          1.1694   -2.3008   -0.7278 O.2       1 <0>        -0.5211
     15 C10         1.0039   -2.9085   -3.0022 C.3       1 <0>         0.1442
     16 C11         0.4918   -4.2938   -3.4018 C.3       1 <0>        -0.0397
     17 C12         0.9660   -4.6222   -4.7941 C.2       1 <0>         0.0144
     18 C13         1.6569   -5.7199   -5.1564 C.2       1 <0>        -0.0623
     19 N2          1.8806   -5.6204   -6.5031 N.pl3     1 <0>        -0.5721
     20 H1          2.3547   -6.2605   -7.0567 H         1 <0>         0.4151
     21 C14         1.3182   -4.4646   -6.9172 C.2       1 <0>         0.1957
     22 N3          0.7687   -3.8754   -5.8906 N.2       1 <0>        -0.4479
     23 N4          2.4662   -2.9340   -2.9177 N.am      1 <0>        -0.7201
     24 C15         3.2087   -2.7464   -4.0268 C.2       1 <0>         0.5231
     25 O5          2.6679   -2.6296   -5.1060 O.2       1 <0>        -0.4813
     26 C16         4.7109   -2.6818   -3.9258 C.3       1 <0>        -0.0802
     27 C17         5.3004   -2.3483   -5.2977 C.3       1 <0>        -0.0674
     28 C18         6.8046   -2.4043   -5.2252 C.ar      1 <0>        -0.0641
     29 C19         7.5213   -1.2696   -4.9978 C.ar      1 <0>        -0.1165
     30 C20         8.9125   -1.3017   -4.9275 C.ar      1 <0>        -0.1111
     31 C21         9.5954   -2.4688   -5.0847 C.ar      1 <0>        -0.1112
     32 C22         8.8899   -3.6606   -5.3211 C.ar      1 <0>        -0.0493
     33 C23         7.4743   -3.6289   -5.3863 C.ar      1 <0>        -0.0460
     34 C24         6.7684   -4.8222   -5.6170 C.ar      1 <0>        -0.1049
     35 C25         7.4509   -5.9898   -5.7682 C.ar      1 <0>        -0.1175
     36 C26         8.8426   -6.0220   -5.6975 C.ar      1 <0>        -0.1162
     37 C27         9.5601   -4.8845   -5.4890 C.ar      1 <0>        -0.1067
     38 C28         5.1085   -1.5971   -2.9226 C.3       1 <0>        -0.1386
     39 C29         4.4648   -0.2916   -3.3130 C.2       1 <0>         0.5090
     40 O6          3.8295   -0.2128   -4.3431 O.2       1 <0>        -0.5131
     41 N5          4.5952    0.7885   -2.5174 N.am      1 <0>        -0.6211
     42 C30         3.9695    2.0576   -2.8969 C.3       1 <0>         0.0862
     43 C31         5.3626    0.6933   -1.2731 C.3       1 <0>         0.0779
     44 H2          0.9205    1.9110   -0.0626 H         1 <0>         0.0532
     45 H3         -0.6184    1.8776   -0.9563 H         1 <0>         0.0511
     46 H4         -0.6227    1.8760    0.8236 H         1 <0>         0.0513
     47 H5          0.4590   -0.3557   -0.9557 H         1 <0>         0.0779
     48 H6          0.1405   -0.1486    2.0729 H         1 <0>         0.0391
     49 H7          0.6885   -1.5894    1.1829 H         1 <0>         0.0731
     50 H8          1.6837   -0.1137    1.1867 H         1 <0>         0.0483
     51 H9         -1.9916   -0.2698    0.8597 H         1 <0>         0.0701
     52 H10        -2.0422   -0.1232   -0.9135 H         1 <0>         0.0723
     53 H11        -0.8428   -2.4885    0.5950 H         1 <0>         0.1167
     54 H12        -2.8740   -3.6981   -0.2553 H         1 <0>         0.1470
     55 H13        -2.8375   -3.1603    4.4259 H         1 <0>         0.1062
     56 H14        -3.3245   -1.5536    3.8345 H         1 <0>         0.0627
     57 H15        -4.4384   -2.9335    3.6816 H         1 <0>         0.0631
     58 H16        -3.7838   -1.0282   -0.9430 H         1 <0>         0.3887
     59 H17        -1.4969   -2.6224   -2.2478 H         1 <0>         0.4100
     60 H18         0.6959   -2.1776   -3.7500 H         1 <0>         0.1212
     61 H19         0.8739   -5.0379   -2.7029 H         1 <0>         0.0790
     62 H20        -0.5979   -4.2990   -3.3784 H         1 <0>         0.0833
     63 H21         1.9740   -6.5239   -4.5088 H         1 <0>         0.1646
     64 H22         1.3194   -4.0917   -7.9308 H         1 <0>         0.1981
     65 H23         2.9001   -3.0860   -2.0636 H         1 <0>         0.4004
     66 H24         5.0943   -3.6453   -3.5901 H         1 <0>         0.0966
     67 H25         4.9448   -3.0717   -6.0315 H         1 <0>         0.0801
     68 H26         4.9879   -1.3469   -5.5938 H         1 <0>         0.1033
     69 H27         7.0039   -0.3302   -4.8702 H         1 <0>         0.1180
     70 H28         9.4572   -0.3870   -4.7459 H         1 <0>         0.1222
     71 H29        10.6739   -2.4784   -5.0284 H         1 <0>         0.1259
     72 H30         5.6899   -4.8126   -5.6735 H         1 <0>         0.1254
     73 H31         6.9060   -6.9053   -5.9453 H         1 <0>         0.1204
     74 H32         9.3597   -6.9621   -5.8207 H         1 <0>         0.1222
     75 H33        10.6382   -4.9246   -5.4374 H         1 <0>         0.1262
     76 H34         4.7733   -1.8837   -1.9258 H         1 <0>         0.0955
     77 H35         6.1924   -1.4820   -2.9224 H         1 <0>         0.1049
     78 H36         2.9612    2.1029   -2.4854 H         1 <0>         0.0526
     79 H37         4.5598    2.8855   -2.5040 H         1 <0>         0.0678
     80 H38         3.9220    2.1287   -3.9835 H         1 <0>         0.0764
     81 H39         6.3898    0.4084   -1.5006 H         1 <0>         0.0612
     82 H40         5.3569    1.6592   -0.7680 H         1 <0>         0.0778
     83 H41         4.9121   -0.0583   -0.6249 H         1 <0>         0.0631
@<TRIPOS>BOND
     1    1    2 1
     2    1   44 1
     3    1   45 1
     4    1   46 1
     5    2    3 1
     6    2    4 1
     7    2   47 1
     8    3   48 1
     9    3   49 1
    10    3   50 1
    11    4    5 1
    12    4   51 1
    13    4   52 1
    14    5    6 1
    15    5   12 1
    16    5   53 1
    17    6    7 1
    18    6   11 1
    19    6   54 1
    20    7    8 2
    21    7    9 1
    22    9   10 1
    23   10   55 1
    24   10   56 1
    25   10   57 1
    26   11   58 1
    27   12   13 am
    28   12   59 1
    29   13   14 2
    30   13   15 1
    31   15   16 1
    32   15   23 1
    33   15   60 1
    34   16   17 1
    35   16   61 1
    36   16   62 1
    37   17   22 1
    38   17   18 2
    39   18   19 1
    40   18   63 1
    41   19   20 1
    42   19   21 1
    43   21   22 2
    44   21   64 1
    45   23   24 am
    46   23   65 1
    47   24   25 2
    48   24   26 1
    49   26   27 1
    50   26   38 1
    51   26   66 1
    52   27   28 1
    53   27   67 1
    54   27   68 1
    55   28   33 ar
    56   28   29 ar
    57   29   30 ar
    58   29   69 1
    59   30   31 ar
    60   30   70 1
    61   31   32 ar
    62   31   71 1
    63   32   37 ar
    64   32   33 ar
    65   33   34 ar
    66   34   35 ar
    67   34   72 1
    68   35   36 ar
    69   35   73 1
    70   36   37 ar
    71   36   74 1
    72   37   75 1
    73   38   39 1
    74   38   76 1
    75   38   77 1
    76   39   40 2
    77   39   41 am
    78   41   42 1
    79   41   43 1
    80   42   78 1
    81   42   79 1
    82   42   80 1
    83   43   81 1
    84   43   82 1
    85   43   83 1
@<TRIPOS>MOLECULE
CHEMBL350425__42
   84    86     0     0     0
SMALL
USER_CHARGES

@<TRIPOS>ATOM
      1 C1          0.4850    2.7483   -2.4201 C.3       1 <0>        -0.1526
      2 C2          0.4649    1.3615   -1.7742 C.3       1 <0>        -0.0832
      3 C3          1.2920    1.3863   -0.4872 C.3       1 <0>        -0.1447
      4 C4         -0.9779    0.9727   -1.4457 C.3       1 <0>        -0.1406
      5 C5         -1.0114   -0.4620   -0.9153 C.3       1 <0>         0.1182
      6 C6         -2.4337   -0.8082   -0.4703 C.3       1 <0>         0.1124
      7 C7         -2.8187    0.0588    0.7007 C.2       1 <0>         0.4323
      8 O1         -3.7142    0.8621    0.5890 O.2       1 <0>        -0.4843
      9 O2         -2.1666   -0.0614    1.8678 O.3       1 <0>        -0.3487
     10 C8         -2.5841    0.7921    2.9351 C.3       1 <0>         0.0306
     11 O3         -3.3401   -0.5789   -1.5510 O.3       1 <0>        -0.5280
     12 N1         -0.5930   -1.3840   -1.9742 N.am      1 <0>        -0.7106
     13 C9          0.7170   -1.6269   -2.1775 C.2       1 <0>         0.5100
     14 O4          1.5495   -1.0823   -1.4838 O.2       1 <0>        -0.4984
     15 C10         1.1473   -2.5753   -3.2668 C.3       1 <0>         0.1303
     16 C11         0.6534   -2.0568   -4.6188 C.3       1 <0>        -0.0727
     17 C12         0.9763   -3.0647   -5.6917 C.2       1 <0>         0.0429
     18 C13         2.1457   -3.1717   -6.3508 C.2       1 <0>         0.0453
     19 N2          2.0105   -4.2111   -7.2311 N.pl3     1 <0>        -0.5009
     20 H1          2.6853   -4.5338   -7.8488 H         1 <0>         0.4657
     21 C14         0.7622   -4.7035   -7.0792 C.cat     1 <0>         0.3119
     22 N3          0.1512   -4.0161   -6.1533 N.pl3     1 <0>        -0.4672
     23 N4          2.6092   -2.6682   -3.2839 N.am      1 <0>        -0.7129
     24 C15         3.2087   -3.7690   -3.7793 C.2       1 <0>         0.5274
     25 O5          2.5379   -4.6825   -4.2109 O.2       1 <0>        -0.5407
     26 C16         4.7126   -3.8646   -3.7968 C.3       1 <0>        -0.0909
     27 C17         5.1313   -5.2045   -4.4053 C.3       1 <0>        -0.0540
     28 C18         6.6323   -5.2515   -4.5320 C.ar      1 <0>        -0.0673
     29 C19         7.2494   -4.6467   -5.5839 C.ar      1 <0>        -0.0791
     30 C20         8.6359   -4.6796   -5.7178 C.ar      1 <0>        -0.1037
     31 C21         9.4136   -5.3179   -4.8009 C.ar      1 <0>        -0.1039
     32 C22         8.8125   -5.9537   -3.7016 C.ar      1 <0>        -0.0426
     33 C23         7.4024   -5.9149   -3.5620 C.ar      1 <0>        -0.0371
     34 C24         6.8016   -6.5459   -2.4592 C.ar      1 <0>        -0.1221
     35 C25         7.5797   -7.1789   -1.5394 C.ar      1 <0>        -0.1104
     36 C26         8.9667   -7.2115   -1.6732 C.ar      1 <0>        -0.1193
     37 C27         9.5823   -6.6231   -2.7349 C.ar      1 <0>        -0.1010
     38 C28         5.2467   -3.7648   -2.3666 C.3       1 <0>        -0.1400
     39 C29         6.7129   -3.4181   -2.4010 C.2       1 <0>         0.5163
     40 O6          7.2383   -3.1082   -3.4492 O.2       1 <0>        -0.5178
     41 N5          7.4403   -3.4524   -1.2668 N.am      1 <0>        -0.6111
     42 C30         8.8375   -3.0122   -1.2791 C.3       1 <0>         0.0871
     43 C31         6.8336   -3.9298   -0.0217 C.3       1 <0>         0.0739
     44 H2          1.5129    3.0253   -2.6541 H         1 <0>         0.0571
     45 H3         -0.1042    2.7307   -3.3369 H         1 <0>         0.0514
     46 H4          0.0606    3.4770   -1.7294 H         1 <0>         0.0557
     47 H5          0.8893    0.6328   -2.4648 H         1 <0>         0.0713
     48 H6          1.2777    0.3983   -0.0270 H         1 <0>         0.0716
     49 H7          2.3199    1.6633   -0.7212 H         1 <0>         0.0526
     50 H8          0.8676    2.1150    0.2035 H         1 <0>         0.0448
     51 H9         -1.3731    1.6494   -0.6881 H         1 <0>         0.0766
     52 H10        -1.5869    1.0412   -2.3471 H         1 <0>         0.0736
     53 H11        -0.3332   -0.5516   -0.0667 H         1 <0>         0.1212
     54 H12        -2.4772   -1.8568   -0.1758 H         1 <0>         0.1469
     55 H13        -2.4613    1.8333    2.6370 H         1 <0>         0.0647
     56 H14        -3.6325    0.6010    3.1643 H         1 <0>         0.0656
     57 H15        -1.9770    0.5931    3.8183 H         1 <0>         0.1089
     58 H16        -3.3541    0.3354   -1.8654 H         1 <0>         0.3904
     59 H17        -1.2589   -1.8195   -2.5291 H         1 <0>         0.4063
     60 H18         0.7227   -3.5614   -3.0786 H         1 <0>         0.1234
     61 H19        -0.4249   -1.9033   -4.5772 H         1 <0>         0.1113
     62 H20         1.1463   -1.1120   -4.8478 H         1 <0>         0.1219
     63 H21         3.0218   -2.5556   -6.2118 H         1 <0>         0.2145
     64 H22         0.3408   -5.5315   -7.6298 H         1 <0>         0.2637
     65 H23         3.1458   -1.9376   -2.9386 H         1 <0>         0.4193
     66 H24         5.1215   -3.0503   -4.3950 H         1 <0>         0.1195
     67 H25         4.7955   -6.0170   -3.7610 H         1 <0>         0.0801
     68 H26         4.6799   -5.3126   -5.3915 H         1 <0>         0.0747
     69 H27         6.6553   -4.1339   -6.3259 H         1 <0>         0.1090
     70 H28         9.1005   -4.1917   -6.5619 H         1 <0>         0.1176
     71 H29        10.4871   -5.3358   -4.9180 H         1 <0>         0.1220
     72 H30         5.7282   -6.5282   -2.3420 H         1 <0>         0.1187
     73 H31         7.1155   -7.6630   -0.6929 H         1 <0>         0.1193
     74 H32         9.5610   -7.7205   -0.9288 H         1 <0>         0.1212
     75 H33        10.6580   -6.6571   -2.8258 H         1 <0>         0.1246
     76 H34         4.7023   -2.9887   -1.8287 H         1 <0>         0.0982
     77 H35         5.1112   -4.7207   -1.8606 H         1 <0>         0.0992
     78 H36         8.8914   -1.9657   -0.9793 H         1 <0>         0.0536
     79 H37         9.4160   -3.6198   -0.5832 H         1 <0>         0.0662
     80 H38         9.2447   -3.1237   -2.2840 H         1 <0>         0.0804
     81 H39         5.7971   -4.2114   -0.2072 H         1 <0>         0.0738
     82 H40         7.3858   -4.7961    0.3426 H         1 <0>         0.0649
     83 H41         6.8666   -3.1372    0.7258 H         1 <0>         0.0639
     84 H42        -0.7570   -4.1681   -5.8484 H         1 <0>         0.4621
@<TRIPOS>BOND
     1    1    2 1
     2    1   44 1
     3    1   45 1
     4    1   46 1
     5    2    3 1
     6    2    4 1
     7    2   47 1
     8    3   48 1
     9    3   49 1
    10    3   50 1
    11    4    5 1
    12    4   51 1
    13    4   52 1
    14    5    6 1
    15    5   12 1
    16    5   53 1
    17    6    7 1
    18    6   11 1
    19    6   54 1
    20    7    8 2
    21    7    9 1
    22    9   10 1
    23   10   55 1
    24   10   56 1
    25   10   57 1
    26   11   58 1
    27   12   13 am
    28   12   59 1
    29   13   14 2
    30   13   15 1
    31   15   16 1
    32   15   23 1
    33   15   60 1
    34   16   17 1
    35   16   61 1
    36   16   62 1
    37   17   22 1
    38   17   18 2
    39   18   19 1
    40   18   63 1
    41   19   20 1
    42   19   21 1
    43   21   22 2
    44   21   64 1
    45   22   84 1
    46   23   24 am
    47   23   65 1
    48   24   25 2
    49   24   26 1
    50   26   27 1
    51   26   38 1
    52   26   66 1
    53   27   28 1
    54   27   67 1
    55   27   68 1
    56   28   33 ar
    57   28   29 ar
    58   29   30 ar
    59   29   69 1
    60   30   31 ar
    61   30   70 1
    62   31   32 ar
    63   31   71 1
    64   32   37 ar
    65   32   33 ar
    66   33   34 ar
    67   34   35 ar
    68   34   72 1
    69   35   36 ar
    70   35   73 1
    71   36   37 ar
    72   36   74 1
    73   37   75 1
    74   38   39 1
    75   38   76 1
    76   38   77 1
    77   39   40 2
    78   39   41 am
    79   41   42 1
    80   41   43 1
    81   42   78 1
    82   42   79 1
    83   42   80 1
    84   43   81 1
    85   43   82 1
    86   43   83 1
@<TRIPOS>MOLECULE
CHEMBL350425__43
   83    85     0     0     0
SMALL
USER_CHARGES

@<TRIPOS>ATOM
      1 C1          2.4356   -0.9107    3.1400 C.3       1 <0>        -0.1504
      2 C2          1.9201   -2.0281    2.2309 C.3       1 <0>        -0.0858
      3 C3          2.4030   -3.3799    2.7604 C.3       1 <0>        -0.1409
      4 C4          0.3904   -2.0049    2.2116 C.3       1 <0>        -0.1386
      5 C5         -0.1227   -3.0395    1.2078 C.3       1 <0>         0.1198
      6 C6         -1.6497   -3.1046    1.2781 C.3       1 <0>         0.1116
      7 C7         -2.0688   -3.6196    2.6309 C.2       1 <0>         0.4352
      8 O1         -2.6841   -2.9043    3.3856 O.2       1 <0>        -0.4890
      9 O2         -1.7585   -4.8731    2.9975 O.3       1 <0>        -0.3483
     10 C8         -2.1874   -5.2949    4.2937 C.3       1 <0>         0.0313
     11 O3         -2.1919   -1.7978    1.0770 O.3       1 <0>        -0.5249
     12 N1          0.2879   -2.6534   -0.1444 N.am      1 <0>        -0.7145
     13 C9          1.5060   -3.0018   -0.6041 C.2       1 <0>         0.5121
     14 O4          2.2622   -3.6350    0.1017 O.2       1 <0>        -0.5159
     15 C10         1.9284   -2.6047   -1.9951 C.3       1 <0>         0.1314
     16 C11         1.9093   -1.0797   -2.1180 C.3       1 <0>        -0.0484
     17 C12         2.1627   -0.6881   -3.5510 C.2       1 <0>        -0.0271
     18 C13         1.2436   -0.5872   -4.5302 C.2       1 <0>        -0.0052
     19 N2          1.8737   -0.2134   -5.6537 N.2       1 <0>        -0.4817
     20 H1          4.2261   -0.3380   -3.6501 H         1 <0>         0.4117
     21 C14         3.1483   -0.0788   -5.4080 C.2       1 <0>         0.2034
     22 N3          3.3703   -0.3606   -4.1060 N.pl3     1 <0>        -0.5605
     23 N4          3.2832   -3.0985   -2.2538 N.am      1 <0>        -0.7158
     24 C15         3.5979   -3.6001   -3.4645 C.2       1 <0>         0.5217
     25 O5          2.7418   -3.7101   -4.3165 O.2       1 <0>        -0.5032
     26 C16         5.0135   -4.0243   -3.7596 C.3       1 <0>        -0.0846
     27 C17         5.0853   -4.6164   -5.1685 C.3       1 <0>        -0.0621
     28 C18         4.7703   -3.5449   -6.1803 C.ar      1 <0>        -0.0761
     29 C19         3.5495   -3.5091   -6.7814 C.ar      1 <0>        -0.0686
     30 C20         3.2401   -2.5262   -7.7192 C.ar      1 <0>        -0.0959
     31 C21         4.1498   -1.5734   -8.0620 C.ar      1 <0>        -0.1113
     32 C22         5.4206   -1.5780   -7.4626 C.ar      1 <0>        -0.0568
     33 C23         5.7332   -2.5742   -6.5040 C.ar      1 <0>        -0.0457
     34 C24         7.0024   -2.5752   -5.9002 C.ar      1 <0>        -0.1162
     35 C25         7.9097   -1.6191   -6.2386 C.ar      1 <0>        -0.1246
     36 C26         7.6001   -0.6356   -7.1764 C.ar      1 <0>        -0.1208
     37 C27         6.3862   -0.6110   -7.7913 C.ar      1 <0>        -0.1143
     38 C28         5.4532   -5.0776   -2.7407 C.3       1 <0>        -0.1370
     39 C29         6.9172   -5.3802   -2.9309 C.2       1 <0>         0.5172
     40 O6          7.5755   -4.7248   -3.7107 O.2       1 <0>        -0.5320
     41 N5          7.4949   -6.3790   -2.2345 N.am      1 <0>        -0.6203
     42 C30         8.9391   -6.6032   -2.3365 C.3       1 <0>         0.0809
     43 C31         6.6787   -7.2405   -1.3755 C.3       1 <0>         0.0734
     44 H2          3.5254   -0.9272    3.1538 H         1 <0>         0.0548
     45 H3          2.0916    0.0524    2.7628 H         1 <0>         0.0515
     46 H4          2.0571   -1.0611    4.1510 H         1 <0>         0.0524
     47 H5          2.2986   -1.8777    1.2199 H         1 <0>         0.0765
     48 H6          2.0245   -3.5304    3.7714 H         1 <0>         0.0405
     49 H7          2.0357   -4.1760    2.1127 H         1 <0>         0.0732
     50 H8          3.4928   -3.3964    2.7742 H         1 <0>         0.0497
     51 H9          0.0108   -2.2433    3.2051 H         1 <0>         0.0713
     52 H10         0.0457   -1.0130    1.9192 H         1 <0>         0.0731
     53 H11         0.2942   -4.0174    1.4488 H         1 <0>         0.1169
     54 H12        -2.0208   -3.7752    0.5031 H         1 <0>         0.1473
     55 H13        -1.8727   -6.3246    4.4633 H         1 <0>         0.1065
     56 H14        -1.7427   -4.6497    5.0513 H         1 <0>         0.0629
     57 H15        -3.2738   -5.2322    4.3552 H         1 <0>         0.0636
     58 H16        -1.9036   -1.1473    1.7318 H         1 <0>         0.3886
     59 H17        -0.3169   -2.1469   -0.7089 H         1 <0>         0.4094
     60 H18         1.2395   -3.0364   -2.7212 H         1 <0>         0.1299
     61 H19         0.9359   -0.7021   -1.8049 H         1 <0>         0.0995
     62 H20         2.6857   -0.6542   -1.4823 H         1 <0>         0.0775
     63 H21         0.1849   -0.7745   -4.4286 H         1 <0>         0.1617
     64 H22         3.9004    0.2131   -6.1260 H         1 <0>         0.1946
     65 H23         3.9537   -3.0644   -1.5537 H         1 <0>         0.4043
     66 H24         5.6730   -3.1589   -3.6951 H         1 <0>         0.1073
     67 H25         6.0881   -5.0033   -5.3494 H         1 <0>         0.0896
     68 H26         4.3615   -5.4262   -5.2596 H         1 <0>         0.0753
     69 H27         2.8097   -4.2540   -6.5278 H         1 <0>         0.1226
     70 H28         2.2640   -2.5204   -8.1814 H         1 <0>         0.1167
     71 H29         3.8963   -0.8180   -8.7910 H         1 <0>         0.1208
     72 H30         7.2562   -3.3306   -5.1713 H         1 <0>         0.1518
     73 H31         8.8843   -1.6221   -5.7731 H         1 <0>         0.1161
     74 H32         8.3383    0.1119   -7.4268 H         1 <0>         0.1168
     75 H33         6.1606    0.1567   -8.5167 H         1 <0>         0.1222
     76 H34         5.2886   -4.6985   -1.7321 H         1 <0>         0.1021
     77 H35         4.8721   -5.9883   -2.8859 H         1 <0>         0.1009
     78 H36         9.4455   -6.0856   -1.5219 H         1 <0>         0.0563
     79 H37         9.1463   -7.6714   -2.2727 H         1 <0>         0.0690
     80 H38         9.2998   -6.2195   -3.2908 H         1 <0>         0.0824
     81 H39         6.3213   -8.0940   -1.9515 H         1 <0>         0.0606
     82 H40         7.2806   -7.5937   -0.5382 H         1 <0>         0.0753
     83 H41         5.8271   -6.6748   -0.9976 H         1 <0>         0.0752
@<TRIPOS>BOND
     1    1    2 1
     2    1   44 1
     3    1   45 1
     4    1   46 1
     5    2    3 1
     6    2    4 1
     7    2   47 1
     8    3   48 1
     9    3   49 1
    10    3   50 1
    11    4    5 1
    12    4   51 1
    13    4   52 1
    14    5    6 1
    15    5   12 1
    16    5   53 1
    17    6    7 1
    18    6   11 1
    19    6   54 1
    20    7    8 2
    21    7    9 1
    22    9   10 1
    23   10   55 1
    24   10   56 1
    25   10   57 1
    26   11   58 1
    27   12   13 am
    28   12   59 1
    29   13   14 2
    30   13   15 1
    31   15   16 1
    32   15   23 1
    33   15   60 1
    34   16   61 1
    35   16   62 1
    36   16   17 1
    37   17   18 2
    38   17   22 1
    39   18   19 1
    40   18   63 1
    41   19   21 2
    42   20   22 1
    43   21   64 1
    44   21   22 1
    45   23   24 am
    46   23   65 1
    47   24   25 2
    48   24   26 1
    49   26   27 1
    50   26   38 1
    51   26   66 1
    52   27   28 1
    53   27   67 1
    54   27   68 1
    55   28   33 ar
    56   28   29 ar
    57   29   30 ar
    58   29   69 1
    59   30   31 ar
    60   30   70 1
    61   31   32 ar
    62   31   71 1
    63   32   37 ar
    64   32   33 ar
    65   33   34 ar
    66   34   35 ar
    67   34   72 1
    68   35   36 ar
    69   35   73 1
    70   36   37 ar
    71   36   74 1
    72   37   75 1
    73   38   39 1
    74   38   76 1
    75   38   77 1
    76   39   40 2
    77   39   41 am
    78   41   42 1
    79   41   43 1
    80   42   78 1
    81   42   79 1
    82   42   80 1
    83   43   81 1
    84   43   82 1
    85   43   83 1
@<TRIPOS>MOLECULE
CHEMBL350425__44
   83    85     0     0     0
SMALL
USER_CHARGES

@<TRIPOS>ATOM
      1 C1          0.4634    2.7465   -2.4410 C.3       1 <0>        -0.1498
      2 C2          0.4457    1.3615   -1.7910 C.3       1 <0>        -0.0869
      3 C3          1.2702    1.3922   -0.5025 C.3       1 <0>        -0.1409
      4 C4         -0.9968    0.9700   -1.4642 C.3       1 <0>        -0.1380
      5 C5         -1.0277   -0.4633   -0.9297 C.3       1 <0>         0.1195
      6 C6         -2.4499   -0.8118   -0.4864 C.3       1 <0>         0.1119
      7 C7         -2.8394    0.0576    0.6813 C.2       1 <0>         0.4355
      8 O1         -3.7368    0.8583    0.5655 O.2       1 <0>        -0.4898
      9 O2         -2.1893   -0.0575    1.8500 O.3       1 <0>        -0.3480
     10 C8         -2.6111    0.7980    2.9140 C.3       1 <0>         0.0313
     11 O3         -3.3548   -0.5880   -1.5695 O.3       1 <0>        -0.5259
     12 N1         -0.6049   -1.3872   -1.9851 N.am      1 <0>        -0.7156
     13 C9          0.7061   -1.6274   -2.1851 C.2       1 <0>         0.5133
     14 O4          1.5359   -1.0786   -1.4914 O.2       1 <0>        -0.5159
     15 C10         1.1410   -2.5778   -3.2707 C.3       1 <0>         0.1436
     16 C11         0.6484   -2.0646   -4.6253 C.3       1 <0>        -0.0400
     17 C12         0.9759   -3.0748   -5.6946 C.2       1 <0>         0.0029
     18 C13         0.1002   -3.6292   -6.5544 C.2       1 <0>        -0.0534
     19 N2          0.8136   -4.4854   -7.3492 N.pl3     1 <0>        -0.5714
     20 H1          0.4601   -5.0336   -8.0671 H         1 <0>         0.4170
     21 C14         2.1013   -4.4243   -6.9471 C.2       1 <0>         0.1876
     22 N3          2.1917   -3.5750   -5.9605 N.2       1 <0>        -0.4479
     23 N4          2.6032   -2.6671   -3.2847 N.am      1 <0>        -0.7154
     24 C15         3.2065   -3.7677   -3.7758 C.2       1 <0>         0.5514
     25 O5          2.5389   -4.6843   -4.2060 O.2       1 <0>        -0.5149
     26 C16         4.7106   -3.8596   -3.7902 C.3       1 <0>        -0.0778
     27 C17         5.1340   -5.2002   -4.3939 C.3       1 <0>        -0.0560
     28 C18         6.6352   -5.2433   -4.5184 C.ar      1 <0>        -0.0525
     29 C19         7.2523   -4.6371   -5.5694 C.ar      1 <0>        -0.0831
     30 C20         8.6391   -4.6665   -5.7013 C.ar      1 <0>        -0.0968
     31 C21         9.4171   -5.3027   -4.7831 C.ar      1 <0>        -0.1178
     32 C22         8.8159   -5.9398   -3.6846 C.ar      1 <0>        -0.0420
     33 C23         7.4056   -5.9045   -3.5471 C.ar      1 <0>        -0.0397
     34 C24         6.8048   -6.5369   -2.4450 C.ar      1 <0>        -0.1128
     35 C25         7.5831   -7.1677   -1.5240 C.ar      1 <0>        -0.1200
     36 C26         8.9704   -7.1968   -1.6557 C.ar      1 <0>        -0.1213
     37 C27         9.5861   -6.6070   -2.7165 C.ar      1 <0>        -0.1058
     38 C28         5.2417   -3.7542   -2.3592 C.3       1 <0>        -0.1376
     39 C29         6.7076   -3.4060   -2.3917 C.2       1 <0>         0.5167
     40 O6          7.2343   -3.0972   -3.4396 O.2       1 <0>        -0.5157
     41 N5          7.4331   -3.4377   -1.2564 N.am      1 <0>        -0.6163
     42 C30         8.8300   -2.9964   -1.2673 C.3       1 <0>         0.0890
     43 C31         6.8249   -3.9136   -0.0115 C.3       1 <0>         0.0798
     44 H2          1.4911    3.0254   -2.6738 H         1 <0>         0.0555
     45 H3         -0.1240    2.7246   -3.3589 H         1 <0>         0.0514
     46 H4          0.0358    3.4761   -1.7533 H         1 <0>         0.0514
     47 H5          0.8733    0.6319   -2.4787 H         1 <0>         0.0785
     48 H6          0.8426    2.1218    0.1852 H         1 <0>         0.0396
     49 H7          1.2575    0.4055   -0.0395 H         1 <0>         0.0730
     50 H8          2.2978    1.6711   -0.7354 H         1 <0>         0.0507
     51 H9         -1.3952    1.6479   -0.7093 H         1 <0>         0.0704
     52 H10        -1.6042    1.0342   -2.3670 H         1 <0>         0.0726
     53 H11        -0.3509   -0.5487   -0.0795 H         1 <0>         0.1170
     54 H12        -2.4913   -1.8596   -0.1890 H         1 <0>         0.1467
     55 H13        -2.0051    0.6031    3.7989 H         1 <0>         0.1065
     56 H14        -2.4904    1.8387    2.6130 H         1 <0>         0.0631
     57 H15        -3.6594    0.6049    3.1417 H         1 <0>         0.0632
     58 H16        -3.3705    0.3254   -1.8866 H         1 <0>         0.3887
     59 H17        -1.2685   -1.8261   -2.5399 H         1 <0>         0.4084
     60 H18         0.7186   -3.5645   -3.0806 H         1 <0>         0.1123
     61 H19        -0.4304   -1.9138   -4.5862 H         1 <0>         0.0836
     62 H20         1.1394   -1.1192   -4.8560 H         1 <0>         0.0806
     63 H21        -0.9611   -3.4358   -6.6065 H         1 <0>         0.1689
     64 H22         2.9212   -4.9828   -7.3740 H         1 <0>         0.1974
     65 H23         3.1372   -1.9341   -2.9406 H         1 <0>         0.4040
     66 H24         5.1186   -3.0460   -4.3899 H         1 <0>         0.1125
     67 H25         4.7995   -6.0116   -3.7475 H         1 <0>         0.0728
     68 H26         4.6842   -5.3126   -5.3804 H         1 <0>         0.0854
     69 H27         6.6581   -4.1261   -6.3124 H         1 <0>         0.1149
     70 H28         9.1037   -4.1776   -6.5448 H         1 <0>         0.1149
     71 H29        10.4908   -5.3178   -4.8986 H         1 <0>         0.1175
     72 H30         5.7311   -6.5219   -2.3295 H         1 <0>         0.1219
     73 H31         7.1189   -7.6528   -0.6781 H         1 <0>         0.1165
     74 H32         9.5650   -7.7040   -0.9103 H         1 <0>         0.1165
     75 H33        10.6620   -6.6382   -2.8059 H         1 <0>         0.1202
     76 H34         4.6954   -2.9768   -1.8251 H         1 <0>         0.0954
     77 H35         5.1062   -4.7085   -1.8502 H         1 <0>         0.0923
     78 H36         8.8826   -1.9494   -0.9687 H         1 <0>         0.0491
     79 H37         9.4080   -3.6026   -0.5697 H         1 <0>         0.0621
     80 H38         9.2388   -3.1089   -2.2714 H         1 <0>         0.0789
     81 H39         6.4921   -4.9435   -0.1401 H         1 <0>         0.0600
     82 H40         7.5592   -3.8668    0.7927 H         1 <0>         0.0751
     83 H41         5.9709   -3.2844    0.2393 H         1 <0>         0.0593
@<TRIPOS>BOND
     1    1    2 1
     2    1   44 1
     3    1   45 1
     4    1   46 1
     5    2    3 1
     6    2    4 1
     7    2   47 1
     8    3   48 1
     9    3   49 1
    10    3   50 1
    11    4    5 1
    12    4   51 1
    13    4   52 1
    14    5    6 1
    15    5   12 1
    16    5   53 1
    17    6    7 1
    18    6   11 1
    19    6   54 1
    20    7    8 2
    21    7    9 1
    22    9   10 1
    23   10   55 1
    24   10   56 1
    25   10   57 1
    26   11   58 1
    27   12   13 am
    28   12   59 1
    29   13   14 2
    30   13   15 1
    31   15   16 1
    32   15   23 1
    33   15   60 1
    34   16   17 1
    35   16   61 1
    36   16   62 1
    37   17   22 1
    38   17   18 2
    39   18   19 1
    40   18   63 1
    41   19   20 1
    42   19   21 1
    43   21   22 2
    44   21   64 1
    45   23   24 am
    46   23   65 1
    47   24   25 2
    48   24   26 1
    49   26   27 1
    50   26   38 1
    51   26   66 1
    52   27   28 1
    53   27   67 1
    54   27   68 1
    55   28   33 ar
    56   28   29 ar
    57   29   30 ar
    58   29   69 1
    59   30   31 ar
    60   30   70 1
    61   31   32 ar
    62   31   71 1
    63   32   37 ar
    64   32   33 ar
    65   33   34 ar
    66   34   35 ar
    67   34   72 1
    68   35   36 ar
    69   35   73 1
    70   36   37 ar
    71   36   74 1
    72   37   75 1
    73   38   39 1
    74   38   76 1
    75   38   77 1
    76   39   40 2
    77   39   41 am
    78   41   42 1
    79   41   43 1
    80   42   78 1
    81   42   79 1
    82   42   80 1
    83   43   81 1
    84   43   82 1
    85   43   83 1
@<TRIPOS>MOLECULE
CHEMBL350425__45
   84    86     0     0     0
SMALL
USER_CHARGES

@<TRIPOS>ATOM
      1 C1         -0.6068   -1.0056    1.7096 C.3       1 <0>        -0.1523
      2 C2         -0.4336   -2.3516    1.0030 C.3       1 <0>        -0.0831
      3 C3          0.3253   -3.3143    1.9186 C.3       1 <0>        -0.1454
      4 C4         -1.8090   -2.9364    0.6757 C.3       1 <0>        -0.1403
      5 C5         -1.6367   -4.2194   -0.1398 C.3       1 <0>         0.1178
      6 C6         -3.0034   -4.8708   -0.3606 C.3       1 <0>         0.1123
      7 C7         -3.5688   -5.3135    0.9643 C.2       1 <0>         0.4324
      8 O1         -4.5749   -4.8003    1.3935 O.2       1 <0>        -0.4847
      9 O2         -2.9547   -6.2779    1.6675 O.3       1 <0>        -0.3484
     10 C8         -3.5458   -6.6478    2.9148 C.3       1 <0>         0.0306
     11 O3         -3.8892   -3.9262   -0.9649 O.3       1 <0>        -0.5279
     12 N1         -1.0342   -3.8971   -1.4357 N.am      1 <0>        -0.7107
     13 C9          0.3050   -3.7979   -1.5503 C.2       1 <0>         0.5095
     14 O4          1.0114   -3.9755   -0.5805 O.2       1 <0>        -0.4966
     15 C10         0.9247   -3.4663   -2.8833 C.3       1 <0>         0.1289
     16 C11         0.4112   -2.1063   -3.3603 C.3       1 <0>        -0.0741
     17 C12         0.9337   -1.8301   -4.7466 C.2       1 <0>         0.0463
     18 C13         2.1315   -1.2940   -5.0486 C.2       1 <0>         0.0324
     19 N2          2.1991   -1.2192   -6.4137 N.pl3     1 <0>        -0.5023
     20 H1          2.9414   -0.8759   -6.9353 H         1 <0>         0.4658
     21 C14         1.0394   -1.7126   -6.8987 C.cat     1 <0>         0.3171
     22 N3          0.2895   -2.0806   -5.8961 N.pl3     1 <0>        -0.4673
     23 N4          2.3824   -3.4170   -2.7455 N.am      1 <0>        -0.7141
     24 C15         3.1686   -3.6408   -3.8170 C.2       1 <0>         0.5276
     25 O5          2.6754   -3.9896   -4.8687 O.2       1 <0>        -0.5373
     26 C16         4.6605   -3.4576   -3.7084 C.3       1 <0>        -0.0979
     27 C17         5.3072   -3.7223   -5.0695 C.3       1 <0>        -0.0526
     28 C18         6.8062   -3.6384   -4.9382 C.ar      1 <0>        -0.0569
     29 C19         7.4611   -2.4983   -5.2907 C.ar      1 <0>        -0.1212
     30 C20         8.8464   -2.4021   -5.1764 C.ar      1 <0>        -0.1147
     31 C21         9.5852   -3.4457   -4.7092 C.ar      1 <0>        -0.0972
     32 C22         8.9443   -4.6388   -4.3354 C.ar      1 <0>        -0.0393
     33 C23         7.5344   -4.7345   -4.4459 C.ar      1 <0>        -0.0107
     34 C24         6.8929   -5.9261   -4.0664 C.ar      1 <0>        -0.1118
     35 C25         7.6310   -6.9671   -3.5938 C.ar      1 <0>        -0.1115
     36 C26         9.0167   -6.8708   -3.4790 C.ar      1 <0>        -0.1165
     37 C27         9.6734   -5.7377   -3.8493 C.ar      1 <0>        -0.1044
     38 C28         4.9676   -2.0249   -3.2678 C.3       1 <0>        -0.1376
     39 C29         6.3780   -1.9526   -2.7417 C.2       1 <0>         0.5085
     40 O6          7.0119   -2.9712   -2.5640 O.2       1 <0>        -0.4989
     41 N5          6.9349   -0.7561   -2.4687 N.am      1 <0>        -0.6175
     42 C30         8.3059   -0.6858   -1.9573 C.3       1 <0>         0.0871
     43 C31         6.1692    0.4743   -2.6834 C.3       1 <0>         0.0744
     44 H2          0.3731   -0.5889    1.9428 H         1 <0>         0.0568
     45 H3         -1.1474   -0.3197    1.0574 H         1 <0>         0.0512
     46 H4         -1.1694   -1.1492    2.6321 H         1 <0>         0.0558
     47 H5          0.1290   -2.2079    0.0806 H         1 <0>         0.0710
     48 H6          0.4486   -4.2732    1.4152 H         1 <0>         0.0719
     49 H7          1.3051   -2.8976    2.1517 H         1 <0>         0.0527
     50 H8         -0.2373   -3.4579    2.8410 H         1 <0>         0.0451
     51 H9         -2.3373   -3.1628    1.6019 H         1 <0>         0.0767
     52 H10        -2.3833   -2.2127    0.0974 H         1 <0>         0.0736
     53 H11        -0.9885   -4.9092    0.4007 H         1 <0>         0.1213
     54 H12        -2.8924   -5.7352   -1.0154 H         1 <0>         0.1470
     55 H13        -3.5773   -5.7799    3.5735 H         1 <0>         0.0647
     56 H14        -4.5593   -7.0106    2.7432 H         1 <0>         0.0656
     57 H15        -2.9519   -7.4349    3.3792 H         1 <0>         0.1090
     58 H16        -4.0348   -3.1296   -0.4363 H         1 <0>         0.3901
     59 H17        -1.5992   -3.7551   -2.2113 H         1 <0>         0.4061
     60 H18         0.6543   -4.2322   -3.6103 H         1 <0>         0.1250
     61 H19        -0.6786   -2.1152   -3.3779 H         1 <0>         0.1136
     62 H20         0.7573   -1.3283   -2.6799 H         1 <0>         0.1227
     63 H21         2.8925   -0.9825   -4.3484 H         1 <0>         0.2120
     64 H22         0.7775   -1.7931   -7.9434 H         1 <0>         0.2658
     65 H23         2.7817   -3.2232   -1.8830 H         1 <0>         0.4195
     66 H24         5.0599   -4.1571   -2.9741 H         1 <0>         0.1280
     67 H25         5.0281   -4.7170   -5.4171 H         1 <0>         0.0879
     68 H26         4.9630   -2.9770   -5.7865 H         1 <0>         0.0675
     69 H27         6.8985   -1.6558   -5.6650 H         1 <0>         0.1056
     70 H28         9.3415   -1.4861   -5.4630 H         1 <0>         0.1152
     71 H29        10.6583   -3.3570   -4.6266 H         1 <0>         0.1221
     72 H30         5.8197   -6.0149   -4.1492 H         1 <0>         0.1176
     73 H31         7.1355   -7.8816   -3.3029 H         1 <0>         0.1201
     74 H32         9.5788   -7.7117   -3.1006 H         1 <0>         0.1223
     75 H33        10.7477   -5.6777   -3.7555 H         1 <0>         0.1251
     76 H34         4.8625   -1.3525   -4.1192 H         1 <0>         0.0888
     77 H35         4.2715   -1.7290   -2.4830 H         1 <0>         0.0976
     78 H36         9.0022   -0.6146   -2.7929 H         1 <0>         0.0568
     79 H37         8.4116    0.1925   -1.3204 H         1 <0>         0.0691
     80 H38         8.5241   -1.5830   -1.3780 H         1 <0>         0.0783
     81 H39         5.1788    0.2242   -3.0639 H         1 <0>         0.0681
     82 H40         6.0710    1.0105   -1.7394 H         1 <0>         0.0664
     83 H41         6.6880    1.1037   -3.4064 H         1 <0>         0.0645
     84 H42        -0.5950   -2.4719   -5.9704 H         1 <0>         0.4637
@<TRIPOS>BOND
     1    1    2 1
     2    1   44 1
     3    1   45 1
     4    1   46 1
     5    2    3 1
     6    2    4 1
     7    2   47 1
     8    3   48 1
     9    3   49 1
    10    3   50 1
    11    4    5 1
    12    4   51 1
    13    4   52 1
    14    5    6 1
    15    5   12 1
    16    5   53 1
    17    6    7 1
    18    6   11 1
    19    6   54 1
    20    7    8 2
    21    7    9 1
    22    9   10 1
    23   10   55 1
    24   10   56 1
    25   10   57 1
    26   11   58 1
    27   12   13 am
    28   12   59 1
    29   13   14 2
    30   13   15 1
    31   15   16 1
    32   15   23 1
    33   15   60 1
    34   16   17 1
    35   16   61 1
    36   16   62 1
    37   17   22 1
    38   17   18 2
    39   18   19 1
    40   18   63 1
    41   19   20 1
    42   19   21 1
    43   21   22 2
    44   21   64 1
    45   22   84 1
    46   23   24 am
    47   23   65 1
    48   24   25 2
    49   24   26 1
    50   26   27 1
    51   26   38 1
    52   26   66 1
    53   27   28 1
    54   27   67 1
    55   27   68 1
    56   28   33 ar
    57   28   29 ar
    58   29   30 ar
    59   29   69 1
    60   30   31 ar
    61   30   70 1
    62   31   32 ar
    63   31   71 1
    64   32   37 ar
    65   32   33 ar
    66   33   34 ar
    67   34   35 ar
    68   34   72 1
    69   35   36 ar
    70   35   73 1
    71   36   37 ar
    72   36   74 1
    73   37   75 1
    74   38   39 1
    75   38   76 1
    76   38   77 1
    77   39   40 2
    78   39   41 am
    79   41   42 1
    80   41   43 1
    81   42   78 1
    82   42   79 1
    83   42   80 1
    84   43   81 1
    85   43   82 1
    86   43   83 1
@<TRIPOS>MOLECULE
CHEMBL350425__46
   83    85     0     0     0
SMALL
USER_CHARGES

@<TRIPOS>ATOM
      1 C1          0.5668   -1.3528    2.8464 C.3       1 <0>        -0.1494
      2 C2          0.8351   -2.5185    1.8924 C.3       1 <0>        -0.0864
      3 C3          2.0759   -3.2832    2.3577 C.3       1 <0>        -0.1409
      4 C4         -0.3711   -3.4597    1.8852 C.3       1 <0>        -0.1373
      5 C5         -0.1561   -4.5564    0.8403 C.3       1 <0>         0.1196
      6 C6         -1.3019   -5.5673    0.9187 C.3       1 <0>         0.1116
      7 C7         -1.2602   -6.2716    2.2504 C.2       1 <0>         0.4359
      8 O1         -2.1622   -6.1237    3.0406 O.2       1 <0>        -0.4906
      9 O2         -0.2209   -7.0632    2.5586 O.3       1 <0>        -0.3477
     10 C8         -0.2470   -7.6994    3.8379 C.3       1 <0>         0.0314
     11 O3         -2.5496   -4.8847    0.7798 O.3       1 <0>        -0.5258
     12 N1         -0.1236   -3.9578   -0.4964 N.am      1 <0>        -0.7177
     13 C9          1.0277   -3.4509   -0.9800 C.2       1 <0>         0.5077
     14 O4          2.0369   -3.4903   -0.3085 O.2       1 <0>        -0.5153
     15 C10         1.0611   -2.8351   -2.3550 C.3       1 <0>         0.1416
     16 C11         0.0866   -1.6568   -2.4100 C.3       1 <0>        -0.0359
     17 C12        -0.1718   -1.2853   -3.8474 C.2       1 <0>        -0.0096
     18 C13        -1.3801   -1.1797   -4.4325 C.2       1 <0>        -0.0604
     19 N2         -1.1594   -0.8232   -5.7356 N.pl3     1 <0>        -0.5774
     20 H1         -1.8365   -0.6708   -6.4132 H         1 <0>         0.4151
     21 C14         0.1771   -0.7233   -5.9014 C.2       1 <0>         0.2019
     22 N3          0.7611   -0.9962   -4.7667 N.2       1 <0>        -0.4304
     23 N4          2.4167   -2.3615   -2.6452 N.am      1 <0>        -0.7087
     24 C15         2.9826   -2.6283   -3.8390 C.2       1 <0>         0.5485
     25 O5          2.3739   -3.2700   -4.6688 O.2       1 <0>        -0.5135
     26 C16         4.3718   -2.1293   -4.1427 C.3       1 <0>        -0.0775
     27 C17         4.7273   -2.4616   -5.5933 C.3       1 <0>        -0.0833
     28 C18         6.1586   -2.0735   -5.8612 C.ar      1 <0>        -0.0596
     29 C19         6.4480   -0.8597   -6.4054 C.ar      1 <0>        -0.1169
     30 C20         7.7651   -0.4834   -6.6603 C.ar      1 <0>        -0.1119
     31 C21         8.8008   -1.3188   -6.3730 C.ar      1 <0>        -0.1137
     32 C22         8.5412   -2.5799   -5.8105 C.ar      1 <0>        -0.0496
     33 C23         7.2017   -2.9602   -5.5454 C.ar      1 <0>        -0.0478
     34 C24         6.9426   -4.2194   -4.9774 C.ar      1 <0>        -0.1042
     35 C25         7.9784   -5.0521   -4.6847 C.ar      1 <0>        -0.1185
     36 C26         9.2960   -4.6755   -4.9394 C.ar      1 <0>        -0.1154
     37 C27         9.5842   -3.4697   -5.5009 C.ar      1 <0>        -0.1093
     38 C28         4.4252   -0.6138   -3.9389 C.3       1 <0>        -0.1318
     39 C29         3.5265    0.0601   -4.9434 C.2       1 <0>         0.5158
     40 O6          2.9152   -0.6051   -5.7526 O.2       1 <0>        -0.4808
     41 N5          3.4020    1.4021   -4.9426 N.am      1 <0>        -0.6253
     42 C30         2.5284    2.0573   -5.9192 C.3       1 <0>         0.0950
     43 C31         4.1404    2.2057   -3.9652 C.3       1 <0>         0.0812
     44 H2          1.4262   -0.6823    2.8515 H         1 <0>         0.0550
     45 H3         -0.3171   -0.8080    2.5149 H         1 <0>         0.0509
     46 H4          0.4003   -1.7377    3.8525 H         1 <0>         0.0513
     47 H5          1.0016   -2.1336    0.8863 H         1 <0>         0.0785
     48 H6          1.9093   -3.6681    3.3638 H         1 <0>         0.0393
     49 H7          2.2670   -4.1136    1.6781 H         1 <0>         0.0734
     50 H8          2.9352   -2.6127    2.3628 H         1 <0>         0.0504
     51 H9         -0.4840   -3.9131    2.8699 H         1 <0>         0.0697
     52 H10        -1.2708   -2.8954    1.6397 H         1 <0>         0.0719
     53 H11         0.7893   -5.0630    1.0346 H         1 <0>         0.1161
     54 H12        -1.1967   -6.2987    0.1174 H         1 <0>         0.1465
     55 H13         0.6489   -8.3083    3.9593 H         1 <0>         0.1064
     56 H14        -0.2797   -6.9411    4.6202 H         1 <0>         0.0629
     57 H15        -1.1302   -8.3342    3.9101 H         1 <0>         0.0631
     58 H16        -2.7108   -4.2173    1.4608 H         1 <0>         0.3880
     59 H17        -0.9308   -3.9263   -1.0334 H         1 <0>         0.4074
     60 H18         0.7709   -3.5814   -3.0945 H         1 <0>         0.1229
     61 H19        -0.8521   -1.9392   -1.9333 H         1 <0>         0.0816
     62 H20         0.5180   -0.8038   -1.8861 H         1 <0>         0.0781
     63 H21        -2.3390   -1.3449   -3.9639 H         1 <0>         0.1666
     64 H22         0.6793   -0.4576   -6.8199 H         1 <0>         0.1984
     65 H23         2.9070   -1.8559   -1.9782 H         1 <0>         0.3993
     66 H24         5.0852   -2.6112   -3.4742 H         1 <0>         0.0955
     67 H25         4.6032   -3.5313   -5.7618 H         1 <0>         0.0771
     68 H26         4.0694   -1.9093   -6.2643 H         1 <0>         0.1242
     69 H27         5.6446   -0.1784   -6.6434 H         1 <0>         0.1176
     70 H28         7.9673    0.4854   -7.0926 H         1 <0>         0.1200
     71 H29         9.8166   -1.0140   -6.5767 H         1 <0>         0.1241
     72 H30         5.9267   -4.5245   -4.7739 H         1 <0>         0.1280
     73 H31         7.7766   -6.0191   -4.2483 H         1 <0>         0.1217
     74 H32        10.0997   -5.3551   -4.6973 H         1 <0>         0.1215
     75 H33        10.6099   -3.1917   -5.6933 H         1 <0>         0.1250
     76 H34         4.0898   -0.3708   -2.9307 H         1 <0>         0.0883
     77 H35         5.4488   -0.2648   -4.0753 H         1 <0>         0.0971
     78 H36         1.5238    2.1463   -5.5057 H         1 <0>         0.0467
     79 H37         2.9172    3.0500   -6.1461 H         1 <0>         0.0608
     80 H38         2.4941    1.4631   -6.8323 H         1 <0>         0.0727
     81 H39         5.2102    2.0405   -4.0930 H         1 <0>         0.0587
     82 H40         3.9149    3.2611   -4.1179 H         1 <0>         0.0735
     83 H41         3.8455    1.9133   -2.9574 H         1 <0>         0.0571
@<TRIPOS>BOND
     1    1    2 1
     2    1   44 1
     3    1   45 1
     4    1   46 1
     5    2    3 1
     6    2    4 1
     7    2   47 1
     8    3   48 1
     9    3   49 1
    10    3   50 1
    11    4    5 1
    12    4   51 1
    13    4   52 1
    14    5    6 1
    15    5   12 1
    16    5   53 1
    17    6    7 1
    18    6   11 1
    19    6   54 1
    20    7    8 2
    21    7    9 1
    22    9   10 1
    23   10   55 1
    24   10   56 1
    25   10   57 1
    26   11   58 1
    27   12   13 am
    28   12   59 1
    29   13   14 2
    30   13   15 1
    31   15   16 1
    32   15   23 1
    33   15   60 1
    34   16   17 1
    35   16   61 1
    36   16   62 1
    37   17   22 1
    38   17   18 2
    39   18   19 1
    40   18   63 1
    41   19   20 1
    42   19   21 1
    43   21   22 2
    44   21   64 1
    45   23   24 am
    46   23   65 1
    47   24   25 2
    48   24   26 1
    49   26   27 1
    50   26   38 1
    51   26   66 1
    52   27   28 1
    53   27   67 1
    54   27   68 1
    55   28   33 ar
    56   28   29 ar
    57   29   30 ar
    58   29   69 1
    59   30   31 ar
    60   30   70 1
    61   31   32 ar
    62   31   71 1
    63   32   37 ar
    64   32   33 ar
    65   33   34 ar
    66   34   35 ar
    67   34   72 1
    68   35   36 ar
    69   35   73 1
    70   36   37 ar
    71   36   74 1
    72   37   75 1
    73   38   39 1
    74   38   76 1
    75   38   77 1
    76   39   40 2
    77   39   41 am
    78   41   42 1
    79   41   43 1
    80   42   78 1
    81   42   79 1
    82   42   80 1
    83   43   81 1
    84   43   82 1
    85   43   83 1
@<TRIPOS>MOLECULE
CHEMBL350425__47
   83    85     0     0     0
SMALL
USER_CHARGES

@<TRIPOS>ATOM
      1 C1          0.5852   -3.0636    2.6000 C.3       1 <0>        -0.1499
      2 C2          0.8829   -4.0968    1.5116 C.3       1 <0>        -0.0859
      3 C3          1.7566   -5.2110    2.0913 C.3       1 <0>        -0.1412
      4 C4         -0.4307   -4.6923    1.0007 C.3       1 <0>        -0.1382
      5 C5         -0.1427   -5.6322   -0.1716 C.3       1 <0>         0.1195
      6 C6         -1.4384   -6.3227   -0.6019 C.3       1 <0>         0.1115
      7 C7         -1.9272   -7.2126    0.5118 C.2       1 <0>         0.4355
      8 O1         -2.9722   -6.9674    1.0666 O.2       1 <0>        -0.4896
      9 O2         -1.2017   -8.2776    0.8874 O.3       1 <0>        -0.3480
     10 C8         -1.7252   -9.0772    1.9498 C.3       1 <0>         0.0314
     11 O3         -2.4300   -5.3359   -0.8932 O.3       1 <0>        -0.5247
     12 N1          0.3961   -4.8612   -1.2948 N.am      1 <0>        -0.7155
     13 C9          1.7150   -4.5908   -1.3555 C.2       1 <0>         0.5101
     14 O4          2.4560   -4.9858   -0.4804 O.2       1 <0>        -0.5141
     15 C10         2.2692   -3.7977   -2.5109 C.3       1 <0>         0.1326
     16 C11         1.6072   -2.4188   -2.5471 C.3       1 <0>        -0.0468
     17 C12         1.9780   -1.7170   -3.8281 C.2       1 <0>        -0.0265
     18 C13         1.3942   -1.8797   -5.0306 C.2       1 <0>        -0.0040
     19 N2          2.0152   -1.0750   -5.9057 N.2       1 <0>        -0.4904
     20 H1          3.5671   -0.4561   -3.3033 H         1 <0>         0.4047
     21 C14         2.9618   -0.4198   -5.2911 C.2       1 <0>         0.2127
     22 N3          2.9692   -0.7872   -3.9916 N.pl3     1 <0>        -0.5564
     23 N4          3.7163   -3.6404   -2.3458 N.am      1 <0>        -0.7185
     24 C15         4.5380   -3.8181   -3.3992 C.2       1 <0>         0.5251
     25 O5          4.0789   -4.1023   -4.4852 O.2       1 <0>        -0.4932
     26 C16         6.0273   -3.6637   -3.2277 C.3       1 <0>        -0.0807
     27 C17         6.7358   -4.0889   -4.5154 C.3       1 <0>        -0.0756
     28 C18         8.2274   -4.0518   -4.3038 C.ar      1 <0>        -0.0649
     29 C19         8.9410   -2.9472   -4.6555 C.ar      1 <0>        -0.1153
     30 C20        10.3206   -2.8946   -4.4675 C.ar      1 <0>        -0.1130
     31 C21        10.9949   -3.9463   -3.9270 C.ar      1 <0>        -0.1092
     32 C22        10.2923   -5.1037   -3.5517 C.ar      1 <0>        -0.0496
     33 C23         8.8879   -5.1549   -3.7372 C.ar      1 <0>        -0.0461
     34 C24         8.1843   -6.3104   -3.3563 C.ar      1 <0>        -0.1070
     35 C25         8.8578   -7.3595   -2.8106 C.ar      1 <0>        -0.1150
     36 C26        10.2378   -7.3067   -2.6221 C.ar      1 <0>        -0.1147
     37 C27        10.9539   -6.2097   -2.9912 C.ar      1 <0>        -0.1077
     38 C28         6.3566   -2.2009   -2.9235 C.3       1 <0>        -0.1369
     39 C29         5.9945   -1.3470   -4.1113 C.2       1 <0>         0.4933
     40 O6          5.3639   -1.8236   -5.0311 O.2       1 <0>        -0.4862
     41 N5          6.3714   -0.0536   -4.1513 N.am      1 <0>        -0.6259
     42 C30         6.0193    0.7765   -5.3060 C.3       1 <0>         0.0781
     43 C31         7.1331    0.5222   -3.0403 C.3       1 <0>         0.0739
     44 H2          1.5210   -2.6393    2.9639 H         1 <0>         0.0546
     45 H3         -0.0372   -2.2698    2.1870 H         1 <0>         0.0512
     46 H4          0.0598   -3.5454    3.4245 H         1 <0>         0.0523
     47 H5          1.4083   -3.6149    0.6871 H         1 <0>         0.0766
     48 H6          1.2311   -5.6929    2.9158 H         1 <0>         0.0404
     49 H7          1.9686   -5.9471    1.3159 H         1 <0>         0.0734
     50 H8          2.6923   -4.7868    2.4552 H         1 <0>         0.0499
     51 H9         -0.9133   -5.2499    1.8034 H         1 <0>         0.0710
     52 H10        -1.0890   -3.8893    0.6693 H         1 <0>         0.0729
     53 H11         0.5848   -6.3837    0.1354 H         1 <0>         0.1167
     54 H12        -1.2516   -6.9238   -1.4918 H         1 <0>         0.1474
     55 H13        -1.0430   -9.9026    2.1534 H         1 <0>         0.1064
     56 H14        -1.8332   -8.4657    2.8456 H         1 <0>         0.0629
     57 H15        -2.6987   -9.4732    1.6607 H         1 <0>         0.0635
     58 H16        -2.6468   -4.7633   -0.1447 H         1 <0>         0.3882
     59 H17        -0.1965   -4.5453   -1.9948 H         1 <0>         0.4091
     60 H18         2.0649   -4.3234   -3.4437 H         1 <0>         0.1299
     61 H19         0.5245   -2.5341   -2.4963 H         1 <0>         0.0986
     62 H20         1.9500   -1.8288   -1.6971 H         1 <0>         0.0754
     63 H21         0.5702   -2.5420   -5.2517 H         1 <0>         0.1611
     64 H22         3.6268    0.2996   -5.7457 H         1 <0>         0.1940
     65 H23         4.0831   -3.4084   -1.4783 H         1 <0>         0.4022
     66 H24         6.3650   -4.2913   -2.4029 H         1 <0>         0.1015
     67 H25         6.4314   -5.1015   -4.7802 H         1 <0>         0.0805
     68 H26         6.4660   -3.4061   -5.3210 H         1 <0>         0.1108
     69 H27         8.4302   -2.0991   -5.0870 H         1 <0>         0.1160
     70 H28        10.8631   -2.0061   -4.7551 H         1 <0>         0.1213
     71 H29        12.0645   -3.8916   -3.7878 H         1 <0>         0.1258
     72 H30         7.1148   -6.3654   -3.4956 H         1 <0>         0.1268
     73 H31         8.3147   -8.2462   -2.5187 H         1 <0>         0.1229
     74 H32        10.7479   -8.1531   -2.1865 H         1 <0>         0.1230
     75 H33        12.0230   -6.1833   -2.8399 H         1 <0>         0.1264
     76 H34         5.7873   -1.8736   -2.0536 H         1 <0>         0.0925
     77 H35         7.4226   -2.1037   -2.7177 H         1 <0>         0.1049
     78 H36         5.0545    1.2524   -5.1306 H         1 <0>         0.0521
     79 H37         6.7816    1.5424   -5.4488 H         1 <0>         0.0724
     80 H38         5.9599    0.1523   -6.1976 H         1 <0>         0.0825
     81 H39         8.1996    0.3949   -3.2264 H         1 <0>         0.0603
     82 H40         6.9035    1.5842   -2.9541 H         1 <0>         0.0745
     83 H41         6.8631    0.0157   -2.1136 H         1 <0>         0.0707
@<TRIPOS>BOND
     1    1    2 1
     2    1   44 1
     3    1   45 1
     4    1   46 1
     5    2    3 1
     6    2    4 1
     7    2   47 1
     8    3   48 1
     9    3   49 1
    10    3   50 1
    11    4    5 1
    12    4   51 1
    13    4   52 1
    14    5    6 1
    15    5   12 1
    16    5   53 1
    17    6    7 1
    18    6   11 1
    19    6   54 1
    20    7    8 2
    21    7    9 1
    22    9   10 1
    23   10   55 1
    24   10   56 1
    25   10   57 1
    26   11   58 1
    27   12   13 am
    28   12   59 1
    29   13   14 2
    30   13   15 1
    31   15   16 1
    32   15   23 1
    33   15   60 1
    34   16   61 1
    35   16   62 1
    36   16   17 1
    37   17   18 2
    38   17   22 1
    39   18   19 1
    40   18   63 1
    41   19   21 2
    42   20   22 1
    43   21   64 1
    44   21   22 1
    45   23   24 am
    46   23   65 1
    47   24   25 2
    48   24   26 1
    49   26   27 1
    50   26   38 1
    51   26   66 1
    52   27   28 1
    53   27   67 1
    54   27   68 1
    55   28   33 ar
    56   28   29 ar
    57   29   30 ar
    58   29   69 1
    59   30   31 ar
    60   30   70 1
    61   31   32 ar
    62   31   71 1
    63   32   37 ar
    64   32   33 ar
    65   33   34 ar
    66   34   35 ar
    67   34   72 1
    68   35   36 ar
    69   35   73 1
    70   36   37 ar
    71   36   74 1
    72   37   75 1
    73   38   39 1
    74   38   76 1
    75   38   77 1
    76   39   40 2
    77   39   41 am
    78   41   42 1
    79   41   43 1
    80   42   78 1
    81   42   79 1
    82   42   80 1
    83   43   81 1
    84   43   82 1
    85   43   83 1
@<TRIPOS>MOLECULE
CHEMBL1092186
   71    74     0     0     0
SMALL
USER_CHARGES

@<TRIPOS>ATOM
      1 C1         -2.4094    0.7177   -3.7934 C.3       1 <0>        -0.1190
      2 C2         -2.1713   -0.7230   -3.4212 C.ar      1 <0>        -0.0594
      3 C3         -2.3282   -1.7159   -4.3705 C.ar      1 <0>        -0.0961
      4 C4         -2.1101   -3.0386   -4.0320 C.ar      1 <0>        -0.0404
      5 C5         -1.7333   -3.3692   -2.7378 C.ar      1 <0>         0.1043
      6 C6         -1.5766   -2.3704   -1.7869 C.ar      1 <0>        -0.0402
      7 C7         -1.7909   -1.0489   -2.1325 C.ar      1 <0>        -0.0965
      8 Cl1        -1.1060   -2.7794   -0.1667 Cl        1 <0>        -0.0454
      9 O1         -1.5186   -4.6689   -2.4020 O.3       1 <0>        -0.3167
     10 C8         -0.1911   -5.1712   -2.5682 C.3       1 <0>         0.0632
     11 C9         -0.1444   -6.6399   -2.1421 C.3       1 <0>        -0.1068
     12 C10         1.2769   -7.1776   -2.3201 C.3       1 <0>        -0.0870
     13 C11         1.3229   -8.6243   -1.9005 C.ar      1 <0>        -0.0632
     14 C12         1.6045   -8.9546   -0.5880 C.ar      1 <0>        -0.1045
     15 C13         1.6467  -10.2816   -0.2031 C.ar      1 <0>        -0.1320
     16 C14         1.4069  -11.2783   -1.1305 C.ar      1 <0>        -0.1094
     17 C15         1.1243  -10.9479   -2.4427 C.ar      1 <0>        -0.1013
     18 C16         1.0779   -9.6208   -2.8267 C.ar      1 <0>        -0.0998
     19 C17         1.4538  -12.7249   -0.7110 C.3       1 <0>        -0.0692
     20 C18         0.0708  -13.1592   -0.2216 C.3       1 <0>        -0.1424
     21 C19        -0.2880  -12.3834    1.0473 C.3       1 <0>        -0.0169
     22 N1          0.7348  -12.6239    2.0740 N.4       1 <0>        -0.6397
     23 C20         0.0853  -14.6357    0.0795 C.2       1 <0>         0.4937
     24 O2          1.1294  -15.2517    0.0437 O.2       1 <0>        -0.4995
     25 N2         -1.0621  -15.2717    0.3887 N.am      1 <0>        -0.5685
     26 C21        -2.3390  -14.5578    0.3117 C.3       1 <0>         0.1374
     27 C22        -2.9039  -14.6873   -1.0794 C.ar      1 <0>        -0.1067
     28 C23        -2.7545  -13.6536   -1.9851 C.ar      1 <0>        -0.1016
     29 C24        -3.2723  -13.7715   -3.2613 C.ar      1 <0>        -0.0957
     30 C25        -3.9406  -14.9232   -3.6332 C.ar      1 <0>        -0.0853
     31 C26        -4.0910  -15.9583   -2.7284 C.ar      1 <0>        -0.0286
     32 C27        -3.5668  -15.8426   -1.4518 C.ar      1 <0>        -0.0115
     33 Cl2        -3.7480  -17.1440   -0.3173 Cl        1 <0>        -0.0351
     34 Cl3        -4.9302  -17.4046   -3.1949 Cl        1 <0>        -0.0306
     35 C28        -1.0323  -16.6770    0.8017 C.3       1 <0>         0.0563
     36 C29         0.3189  -17.2629    1.2165 C.3       1 <0>        -0.1897
     37 C30        -0.3140  -17.6681   -0.1163 C.3       1 <0>        -0.1718
     38 Cl4        -2.3078   -4.2846   -5.2244 Cl        1 <0>        -0.0430
     39 H1         -1.4790    1.1591   -4.1510 H         1 <0>         0.0815
     40 H2         -3.1622    0.7702   -4.5799 H         1 <0>         0.0766
     41 H3         -2.7590    1.2660   -2.9187 H         1 <0>         0.0764
     42 H4         -2.6218   -1.4581   -5.3773 H         1 <0>         0.1467
     43 H5         -1.6648   -0.2709   -1.3942 H         1 <0>         0.1465
     44 H6          0.1007   -5.0871   -3.6150 H         1 <0>         0.0589
     45 H7          0.4964   -4.5920   -1.9517 H         1 <0>         0.0582
     46 H8         -0.4362   -6.7240   -1.0953 H         1 <0>         0.0748
     47 H9         -0.8318   -7.2191   -2.7586 H         1 <0>         0.0766
     48 H10         1.5687   -7.0935   -3.3670 H         1 <0>         0.0818
     49 H11         1.9644   -6.5984   -1.7037 H         1 <0>         0.0807
     50 H12         1.7919   -8.1759    0.1365 H         1 <0>         0.1287
     51 H13         1.8674  -10.5397    0.8221 H         1 <0>         0.1044
     52 H14         0.9373  -11.7266   -3.1673 H         1 <0>         0.1280
     53 H15         0.8535   -9.3625   -3.8511 H         1 <0>         0.1306
     54 H16         1.7482  -13.3403   -1.5611 H         1 <0>         0.1084
     55 H17         2.1787  -12.8465    0.0939 H         1 <0>         0.0757
     56 H18        -0.6694  -12.9534   -0.9949 H         1 <0>         0.1459
     57 H19        -0.3325  -11.3180    0.8214 H         1 <0>         0.1559
     58 H20        -1.2580  -12.7176    1.4155 H         1 <0>         0.1467
     59 H21         0.8329  -13.6167    2.2249 H         1 <0>         0.4355
     60 H22         1.6165  -12.2417    1.7664 H         1 <0>         0.4340
     61 H23        -3.0387  -14.9863    1.0293 H         1 <0>         0.1111
     62 H24        -2.1808  -13.5044    0.5430 H         1 <0>         0.0956
     63 H25        -2.2331  -12.7533   -1.6953 H         1 <0>         0.1345
     64 H26        -3.1550  -12.9634   -3.9681 H         1 <0>         0.1454
     65 H27        -4.3456  -15.0144   -4.6303 H         1 <0>         0.1495
     66 H28        -1.9180  -17.0308    1.3294 H         1 <0>         0.1365
     67 H29         1.1856  -16.6029    1.1820 H         1 <0>         0.1331
     68 H30         0.3223  -18.0023    2.0173 H         1 <0>         0.0974
     69 H31        -0.7269  -18.6740   -0.1923 H         1 <0>         0.1019
     70 H32         0.1364  -17.2745   -1.0276 H         1 <0>         0.0981
     71 H33         0.4574  -12.1785    2.9358 H         1 <0>         0.4428
@<TRIPOS>BOND
     1    1    2 1
     2    1   39 1
     3    1   40 1
     4    1   41 1
     5    2    7 ar
     6    2    3 ar
     7    3    4 ar
     8    3   42 1
     9    4    5 ar
    10    4   38 1
    11    5    6 ar
    12    5    9 1
    13    6    7 ar
    14    6    8 1
    15    7   43 1
    16    9   10 1
    17   10   11 1
    18   10   44 1
    19   10   45 1
    20   11   12 1
    21   11   46 1
    22   11   47 1
    23   12   13 1
    24   12   48 1
    25   12   49 1
    26   13   18 ar
    27   13   14 ar
    28   14   15 ar
    29   14   50 1
    30   15   16 ar
    31   15   51 1
    32   16   17 ar
    33   16   19 1
    34   17   18 ar
    35   17   52 1
    36   18   53 1
    37   19   20 1
    38   19   54 1
    39   19   55 1
    40   20   21 1
    41   20   23 1
    42   20   56 1
    43   21   22 1
    44   21   57 1
    45   21   58 1
    46   22   59 1
    47   22   60 1
    48   22   71 1
    49   23   24 2
    50   23   25 am
    51   25   26 1
    52   25   35 1
    53   26   27 1
    54   26   61 1
    55   26   62 1
    56   27   32 ar
    57   27   28 ar
    58   28   29 ar
    59   28   63 1
    60   29   30 ar
    61   29   64 1
    62   30   31 ar
    63   30   65 1
    64   31   32 ar
    65   31   34 1
    66   32   33 1
    67   35   37 1
    68   35   36 1
    69   35   66 1
    70   36   37 1
    71   36   67 1
    72   36   68 1
    73   37   69 1
    74   37   70 1
@<TRIPOS>MOLECULE
CHEMBL1092186__1
   71    74     0     0     0
SMALL
USER_CHARGES

@<TRIPOS>ATOM
      1 C1         -1.6096    0.7441   -2.6348 C.3       1 <0>        -0.1190
      2 C2         -1.4024   -0.7286   -2.3917 C.ar      1 <0>        -0.0594
      3 C3         -1.1690   -1.5777   -3.4576 C.ar      1 <0>        -0.0964
      4 C4         -0.9781   -2.9293   -3.2376 C.ar      1 <0>        -0.0404
      5 C5         -1.0211   -3.4335   -1.9452 C.ar      1 <0>         0.1042
      6 C6         -1.2556   -2.5788   -0.8772 C.ar      1 <0>        -0.0405
      7 C7         -1.4405   -1.2272   -1.1028 C.ar      1 <0>        -0.0962
      8 Cl1        -1.3107   -3.2051    0.7409 Cl        1 <0>        -0.0436
      9 O1         -0.8342   -4.7621   -1.7260 O.3       1 <0>        -0.3174
     10 C8          0.5076   -5.2005   -1.5034 C.3       1 <0>         0.0628
     11 C9          0.5188   -6.7137   -1.2773 C.3       1 <0>        -0.1056
     12 C10         1.9554   -7.1830   -1.0390 C.3       1 <0>        -0.0870
     13 C11         1.9665   -8.6734   -0.8163 C.ar      1 <0>        -0.0646
     14 C12         1.8279   -9.1824    0.4614 C.ar      1 <0>        -0.1060
     15 C13         1.8381  -10.5496    0.6657 C.ar      1 <0>        -0.1085
     16 C14         1.9864  -11.4077   -0.4078 C.ar      1 <0>        -0.1097
     17 C15         2.1241  -10.8988   -1.6857 C.ar      1 <0>        -0.1208
     18 C16         2.1097   -9.5317   -1.8905 C.ar      1 <0>        -0.1087
     19 C17         1.9985  -12.8981   -0.1850 C.3       1 <0>        -0.0630
     20 C18         0.5705  -13.4393   -0.2781 C.3       1 <0>        -0.1420
     21 C19         0.0440  -13.2471   -1.7018 C.3       1 <0>         0.0001
     22 N1         -1.3494  -13.7065   -1.7748 N.4       1 <0>        -0.6400
     23 C20         0.5660  -14.9066    0.0653 C.2       1 <0>         0.4993
     24 O2          0.8148  -15.7303   -0.7894 O.2       1 <0>        -0.5160
     25 N2          0.2855  -15.3036    1.3224 N.am      1 <0>        -0.5588
     26 C21         0.0576  -14.3070    2.3717 C.3       1 <0>         0.1356
     27 C22        -1.4205  -14.0437    2.5020 C.ar      1 <0>        -0.0975
     28 C23        -1.9824  -12.9387    1.8901 C.ar      1 <0>        -0.1220
     29 C24        -3.3380  -12.6964    2.0092 C.ar      1 <0>        -0.1013
     30 C25        -4.1335  -13.5587    2.7407 C.ar      1 <0>        -0.0878
     31 C26        -3.5730  -14.6646    3.3534 C.ar      1 <0>        -0.0253
     32 C27        -2.2158  -14.9107    3.2290 C.ar      1 <0>        -0.0133
     33 Cl2        -1.5121  -16.3027    3.9911 Cl        1 <0>        -0.0279
     34 Cl3        -4.5714  -15.7477    4.2721 Cl        1 <0>        -0.0261
     35 C28         0.2084  -16.7318    1.6395 C.3       1 <0>         0.0550
     36 C29         0.8308  -17.7114    0.6425 C.3       1 <0>        -0.1893
     37 C30        -0.6908  -17.6032    0.7602 C.3       1 <0>        -0.1770
     38 Cl4        -0.6856   -3.9948   -4.5766 Cl        1 <0>        -0.0447
     39 H1         -0.6480    1.2565   -2.6027 H         1 <0>         0.0816
     40 H2         -2.0665    0.8901   -3.6136 H         1 <0>         0.0765
     41 H3         -2.2640    1.1511   -1.8640 H         1 <0>         0.0765
     42 H4         -1.1360   -1.1849   -4.4631 H         1 <0>         0.1465
     43 H5         -1.6186   -0.5610   -0.2716 H         1 <0>         0.1467
     44 H6          1.1179   -4.9586   -2.3735 H         1 <0>         0.0586
     45 H7          0.9126   -4.6988   -0.6246 H         1 <0>         0.0589
     46 H8         -0.0915   -6.9556   -0.4072 H         1 <0>         0.0753
     47 H9          0.1137   -7.2154   -2.1561 H         1 <0>         0.0742
     48 H10         2.5658   -6.9411   -1.9091 H         1 <0>         0.0805
     49 H11         2.3605   -6.6813   -0.1602 H         1 <0>         0.0809
     50 H12         1.7120   -8.5120    1.3001 H         1 <0>         0.1282
     51 H13         1.7305  -10.9472    1.6640 H         1 <0>         0.1241
     52 H14         2.2404  -11.5692   -2.5244 H         1 <0>         0.1240
     53 H15         2.2135   -9.1342   -2.8892 H         1 <0>         0.1276
     54 H16         2.6178  -13.3741   -0.9454 H         1 <0>         0.0975
     55 H17         2.4054  -13.1145    0.8027 H         1 <0>         0.0966
     56 H18        -0.0686  -12.9005    0.4214 H         1 <0>         0.1166
     57 H19         0.0929  -12.1912   -1.9678 H         1 <0>         0.1508
     58 H20         0.6540  -13.8253   -2.3959 H         1 <0>         0.1520
     59 H21        -1.4062  -14.6609   -1.4525 H         1 <0>         0.4336
     60 H22        -1.9279  -13.1198   -1.1922 H         1 <0>         0.4315
     61 H23         0.4448  -14.6819    3.3191 H         1 <0>         0.1103
     62 H24         0.5699  -13.3810    2.1106 H         1 <0>         0.1051
     63 H25        -1.3617  -12.2641    1.3191 H         1 <0>         0.1353
     64 H26        -3.7760  -11.8329    1.5308 H         1 <0>         0.1458
     65 H27        -5.1925  -13.3684    2.8339 H         1 <0>         0.1503
     66 H28         0.2721  -16.9824    2.6984 H         1 <0>         0.1379
     67 H29         1.2976  -17.2933   -0.2493 H         1 <0>         0.1453
     68 H30         1.3043  -18.6067    1.0455 H         1 <0>         0.0967
     69 H31        -1.2184  -18.4272    1.2406 H         1 <0>         0.1035
     70 H32        -1.2250  -17.1138   -0.0542 H         1 <0>         0.0861
     71 H33        -1.6712  -13.6541   -2.7296 H         1 <0>         0.4439
@<TRIPOS>BOND
     1    1    2 1
     2    1   39 1
     3    1   40 1
     4    1   41 1
     5    2    7 ar
     6    2    3 ar
     7    3    4 ar
     8    3   42 1
     9    4    5 ar
    10    4   38 1
    11    5    6 ar
    12    5    9 1
    13    6    7 ar
    14    6    8 1
    15    7   43 1
    16    9   10 1
    17   10   11 1
    18   10   44 1
    19   10   45 1
    20   11   12 1
    21   11   46 1
    22   11   47 1
    23   12   13 1
    24   12   48 1
    25   12   49 1
    26   13   18 ar
    27   13   14 ar
    28   14   15 ar
    29   14   50 1
    30   15   16 ar
    31   15   51 1
    32   16   17 ar
    33   16   19 1
    34   17   18 ar
    35   17   52 1
    36   18   53 1
    37   19   20 1
    38   19   54 1
    39   19   55 1
    40   20   21 1
    41   20   23 1
    42   20   56 1
    43   21   22 1
    44   21   57 1
    45   21   58 1
    46   22   59 1
    47   22   60 1
    48   22   71 1
    49   23   24 2
    50   23   25 am
    51   25   26 1
    52   25   35 1
    53   26   27 1
    54   26   61 1
    55   26   62 1
    56   27   32 ar
    57   27   28 ar
    58   28   29 ar
    59   28   63 1
    60   29   30 ar
    61   29   64 1
    62   30   31 ar
    63   30   65 1
    64   31   32 ar
    65   31   34 1
    66   32   33 1
    67   35   37 1
    68   35   36 1
    69   35   66 1
    70   36   37 1
    71   36   67 1
    72   36   68 1
    73   37   69 1
    74   37   70 1
@<TRIPOS>MOLECULE
CHEMBL124540
   78    80     0     0     0
SMALL
USER_CHARGES

@<TRIPOS>ATOM
      1 C1         -2.9842    1.5724    1.0877 C.3       1 <0>        -0.1251
      2 C2         -2.5260    0.1472    0.9153 C.ar      1 <0>        -0.0316
      3 C3         -2.9114   -0.5717   -0.1981 C.ar      1 <0>        -0.1107
      4 C4         -2.4935   -1.8790   -0.3611 C.ar      1 <0>        -0.0882
      5 C5         -1.6826   -2.4787    0.5953 C.ar      1 <0>         0.1341
      6 C6         -1.2901   -1.7654    1.7169 C.ar      1 <0>        -0.1090
      7 C7         -1.7071   -0.4441    1.8786 C.ar      1 <0>        -0.1255
      8 C8         -1.2877    0.3257    3.0694 C.2       1 <0>         0.5678
      9 O1         -1.6665    1.4712    3.2169 O.2       1 <0>        -0.5234
     10 N1         -0.4855   -0.2428    3.9911 N.am      1 <0>        -0.7179
     11 C9         -0.0007    0.5458    5.1266 C.3       1 <0>         0.1130
     12 C10         1.5128    0.7353    5.0067 C.3       1 <0>        -0.1328
     13 C11         1.8181    1.6774    3.8405 C.3       1 <0>        -0.0787
     14 C12         1.5707    0.9487    2.5181 C.3       1 <0>        -0.1209
     15 C13         1.8759    1.8908    1.3518 C.3       1 <0>        -0.1190
     16 C14         3.3385    2.3344    1.4238 C.3       1 <0>        -0.1189
     17 C15         3.5859    3.0630    2.7462 C.3       1 <0>        -0.1195
     18 C16         3.2806    2.1210    3.9125 C.3       1 <0>        -0.1135
     19 C17        -0.3212   -0.1873    6.4307 C.3       1 <0>         0.0672
     20 C18         0.0721    0.6915    7.6197 C.3       1 <0>         0.0760
     21 C19        -0.2484   -0.0417    8.9238 C.3       1 <0>        -0.1432
     22 C20         0.2580    0.7819   10.1097 C.3       1 <0>        -0.0947
     23 C21        -0.1714    0.1119   11.4164 C.3       1 <0>        -0.1488
     24 C22         1.7847    0.8661   10.0573 C.3       1 <0>        -0.1500
     25 O2         -0.6613    1.9169    7.5696 O.3       1 <0>        -0.5496
     26 O3          0.4123   -1.4127    6.4808 O.3       1 <0>        -0.5516
     27 N2         -1.2629   -3.8031    0.4260 N.am      1 <0>        -0.6761
     28 C23        -1.0443   -4.2876   -0.8125 C.2       1 <0>         0.5137
     29 O4         -1.1219   -3.5521   -1.7739 O.2       1 <0>        -0.5047
     30 C24        -0.7035   -5.7431   -1.0029 C.3       1 <0>        -0.0998
     31 C25        -0.5093   -6.0258   -2.4704 C.ar      1 <0>        -0.0737
     32 C26        -1.5855   -6.4089   -3.2488 C.ar      1 <0>        -0.1044
     33 C27        -1.4074   -6.6682   -4.5948 C.ar      1 <0>        -0.1186
     34 C28        -0.1532   -6.5440   -5.1626 C.ar      1 <0>        -0.1166
     35 C29         0.9228   -6.1600   -4.3844 C.ar      1 <0>        -0.1186
     36 C30         0.7439   -5.8965   -3.0393 C.ar      1 <0>        -0.1040
     37 H1         -2.2030    2.2495    0.7422 H         1 <0>         0.0737
     38 H2         -3.8906    1.7358    0.5047 H         1 <0>         0.0579
     39 H3         -3.1904    1.7629    2.1410 H         1 <0>         0.1004
     40 H4         -3.5420   -0.1113   -0.9442 H         1 <0>         0.1338
     41 H5         -2.7983   -2.4366   -1.2344 H         1 <0>         0.1398
     42 H6         -0.6603   -2.2297    2.4614 H         1 <0>         0.1276
     43 H7         -0.2291   -1.1741    3.9027 H         1 <0>         0.4006
     44 H8         -0.4898    1.5199    5.1277 H         1 <0>         0.1202
     45 H9          1.8996    1.1643    5.9311 H         1 <0>         0.0774
     46 H10         1.9868   -0.2298    4.8279 H         1 <0>         0.0671
     47 H11         1.1699    2.5517    3.9003 H         1 <0>         0.0733
     48 H12         2.2189    0.0745    2.4582 H         1 <0>         0.0541
     49 H13         0.5288    0.6327    2.4667 H         1 <0>         0.0734
     50 H14         1.6997    1.3717    0.4097 H         1 <0>         0.0570
     51 H15         1.2277    2.7651    1.4117 H         1 <0>         0.0605
     52 H16         3.9867    1.4601    1.3639 H         1 <0>         0.0585
     53 H17         3.5559    3.0055    0.5929 H         1 <0>         0.0588
     54 H18         4.6278    3.3790    2.7975 H         1 <0>         0.0599
     55 H19         2.9377    3.9373    2.8061 H         1 <0>         0.0612
     56 H20         3.4569    2.6401    4.8546 H         1 <0>         0.0603
     57 H21         3.9288    1.2467    3.8526 H         1 <0>         0.0593
     58 H22        -1.3891   -0.4010    6.4743 H         1 <0>         0.1036
     59 H23         1.1401    0.9052    7.5761 H         1 <0>         0.1064
     60 H24        -1.3266   -0.1767    9.0092 H         1 <0>         0.0650
     61 H25         0.2408   -1.0157    8.9227 H         1 <0>         0.0799
     62 H26        -0.1632    1.7861   10.0608 H         1 <0>         0.0764
     63 H27         0.2497   -0.8923   11.4653 H         1 <0>         0.0535
     64 H28         0.1893    0.6986   12.2612 H         1 <0>         0.0550
     65 H29        -1.2591    0.0519   11.4537 H         1 <0>         0.0531
     66 H30         2.2059   -0.1381   10.1062 H         1 <0>         0.0534
     67 H31         2.0906    1.3434    9.1264 H         1 <0>         0.0546
     68 H32         2.1455    1.4528   10.9021 H         1 <0>         0.0549
     69 H33        -1.6209    1.8026    7.6042 H         1 <0>         0.3765
     70 H34         1.3719   -1.2985    6.4462 H         1 <0>         0.3751
     71 H35        -1.1293   -4.3722    1.2000 H         1 <0>         0.4120
     72 H36         0.2150   -5.9748   -0.4636 H         1 <0>         0.1070
     73 H37        -1.5159   -6.3598   -0.6185 H         1 <0>         0.1084
     74 H38        -2.5654   -6.5060   -2.8052 H         1 <0>         0.1197
     75 H39        -2.2481   -6.9683   -5.2028 H         1 <0>         0.1230
     76 H40        -0.0139   -6.7472   -6.2141 H         1 <0>         0.1223
     77 H41         1.9028   -6.0632   -4.8280 H         1 <0>         0.1228
     78 H42         1.5838   -5.5929   -2.4321 H         1 <0>         0.1193
@<TRIPOS>BOND
     1    1    2 1
     2    1   37 1
     3    1   38 1
     4    1   39 1
     5    2    7 ar
     6    2    3 ar
     7    3    4 ar
     8    3   40 1
     9    4    5 ar
    10    4   41 1
    11    5    6 ar
    12    5   27 1
    13    6    7 ar
    14    6   42 1
    15    7    8 1
    16    8    9 2
    17    8   10 am
    18   10   11 1
    19   10   43 1
    20   11   12 1
    21   11   19 1
    22   11   44 1
    23   12   13 1
    24   12   45 1
    25   12   46 1
    26   13   18 1
    27   13   14 1
    28   13   47 1
    29   14   15 1
    30   14   48 1
    31   14   49 1
    32   15   16 1
    33   15   50 1
    34   15   51 1
    35   16   17 1
    36   16   52 1
    37   16   53 1
    38   17   18 1
    39   17   54 1
    40   17   55 1
    41   18   56 1
    42   18   57 1
    43   19   20 1
    44   19   26 1
    45   19   58 1
    46   20   21 1
    47   20   25 1
    48   20   59 1
    49   21   22 1
    50   21   60 1
    51   21   61 1
    52   22   23 1
    53   22   24 1
    54   22   62 1
    55   23   63 1
    56   23   64 1
    57   23   65 1
    58   24   66 1
    59   24   67 1
    60   24   68 1
    61   25   69 1
    62   26   70 1
    63   27   28 am
    64   27   71 1
    65   28   29 2
    66   28   30 1
    67   30   31 1
    68   30   72 1
    69   30   73 1
    70   31   36 ar
    71   31   32 ar
    72   32   33 ar
    73   32   74 1
    74   33   34 ar
    75   33   75 1
    76   34   35 ar
    77   34   76 1
    78   35   36 ar
    79   35   77 1
    80   36   78 1
@<TRIPOS>MOLECULE
CHEMBL124540__1
   78    80     0     0     0
SMALL
USER_CHARGES

@<TRIPOS>ATOM
      1 C1         -4.3827    0.3441    1.4606 C.3       1 <0>        -0.1269
      2 C2         -3.5915   -0.9130    1.2062 C.ar      1 <0>        -0.0308
      3 C3         -3.8651   -1.6882    0.0975 C.ar      1 <0>        -0.1107
      4 C4         -3.1420   -2.8418   -0.1404 C.ar      1 <0>        -0.0871
      5 C5         -2.1348   -3.2293    0.7354 C.ar      1 <0>         0.1345
      6 C6         -1.8523   -2.4578    1.8516 C.ar      1 <0>        -0.1090
      7 C7         -2.5782   -1.2905    2.0887 C.ar      1 <0>        -0.1251
      8 C8         -2.2789   -0.4587    3.2740 C.2       1 <0>         0.5698
      9 O1         -2.9485    0.5282    3.5087 O.2       1 <0>        -0.5244
     10 N1         -1.2635   -0.7948    4.0941 N.am      1 <0>        -0.7198
     11 C9         -0.8915    0.0908    5.2002 C.3       1 <0>         0.1176
     12 C10         0.4017    0.8294    4.8494 C.3       1 <0>        -0.1507
     13 C11         0.1801    1.6787    3.5962 C.3       1 <0>        -0.0791
     14 C12         0.1940    0.7771    2.3601 C.3       1 <0>        -0.1257
     15 C13        -0.0277    1.6264    1.1069 C.3       1 <0>        -0.1184
     16 C14         1.0883    2.6668    0.9919 C.3       1 <0>        -0.1184
     17 C15         1.0745    3.5683    2.2280 C.3       1 <0>        -0.1197
     18 C16         1.2961    2.7190    3.4812 C.3       1 <0>        -0.1114
     19 C17        -0.6772   -0.7387    6.4678 C.3       1 <0>         0.0662
     20 C18        -0.4602    0.1968    7.6589 C.3       1 <0>         0.0772
     21 C19        -0.3297   -0.6300    8.9396 C.3       1 <0>        -0.1409
     22 C20        -0.1638    0.3076   10.1373 C.3       1 <0>        -0.0936
     23 C21        -1.4286    1.1524   10.3026 C.3       1 <0>        -0.1514
     24 C22         0.0666   -0.5190   11.4040 C.3       1 <0>        -0.1492
     25 O2          0.7342    0.9550    7.4577 O.3       1 <0>        -0.5449
     26 O3          0.4708   -1.5734    6.3024 O.3       1 <0>        -0.5536
     27 N2         -1.4061   -4.3988    0.4904 N.am      1 <0>        -0.6768
     28 C23        -1.1434   -4.7761   -0.7765 C.2       1 <0>         0.5138
     29 O4         -1.4490   -4.0524   -1.7006 O.2       1 <0>        -0.5047
     30 C24        -0.4699   -6.0972   -1.0450 C.3       1 <0>        -0.0998
     31 C25        -0.2921   -6.2778   -2.5305 C.ar      1 <0>        -0.0737
     32 C26        -1.2833   -6.8882   -3.2761 C.ar      1 <0>        -0.1045
     33 C27        -1.1202   -7.0539   -4.6388 C.ar      1 <0>        -0.1186
     34 C28         0.0338   -6.6086   -5.2559 C.ar      1 <0>        -0.1167
     35 C29         1.0245   -5.9973   -4.5105 C.ar      1 <0>        -0.1186
     36 C30         0.8596   -5.8279   -3.1486 C.ar      1 <0>        -0.1040
     37 H1         -3.8294    1.2042    1.0835 H         1 <0>         0.0730
     38 H2         -5.3436    0.2782    0.9503 H         1 <0>         0.0579
     39 H3         -4.5474    0.4593    2.5319 H         1 <0>         0.1022
     40 H4         -4.6471   -1.3925   -0.5862 H         1 <0>         0.1337
     41 H5         -3.3607   -3.4443   -1.0097 H         1 <0>         0.1379
     42 H6         -1.0702   -2.7575    2.5335 H         1 <0>         0.1275
     43 H7         -0.7791   -1.6231    3.9520 H         1 <0>         0.4009
     44 H8         -1.6886    0.8146    5.3700 H         1 <0>         0.1074
     45 H9          0.6883    1.4748    5.6797 H         1 <0>         0.1155
     46 H10         1.1944    0.1050    4.6619 H         1 <0>         0.0592
     47 H11        -0.7827    2.1849    3.6659 H         1 <0>         0.0719
     48 H12         1.1568    0.2709    2.2903 H         1 <0>         0.0526
     49 H13        -0.6011    0.0360    2.4420 H         1 <0>         0.0755
     50 H14        -0.0178    0.9842    0.2263 H         1 <0>         0.0554
     51 H15        -0.9905    2.1326    1.1766 H         1 <0>         0.0592
     52 H16         2.0511    2.1606    0.9222 H         1 <0>         0.0580
     53 H17         0.9304    3.2718    0.0991 H         1 <0>         0.0576
     54 H18         1.8695    4.3094    2.1461 H         1 <0>         0.0588
     55 H19         0.1116    4.0745    2.2978 H         1 <0>         0.0600
     56 H20         1.2862    3.3613    4.3618 H         1 <0>         0.0609
     57 H21         2.2589    2.2128    3.4115 H         1 <0>         0.0578
     58 H22        -1.5548   -1.3594    6.6485 H         1 <0>         0.1109
     59 H23        -1.3097    0.8739    7.7485 H         1 <0>         0.1118
     60 H24        -1.2258   -1.2358    9.0739 H         1 <0>         0.0714
     61 H25         0.5412   -1.2812    8.8646 H         1 <0>         0.0726
     62 H26         0.6913    0.9625    9.9702 H         1 <0>         0.0769
     63 H27        -2.2838    0.4975   10.4697 H         1 <0>         0.0527
     64 H28        -1.3104    1.8203   11.1559 H         1 <0>         0.0547
     65 H29        -1.5928    1.7413    9.4002 H         1 <0>         0.0567
     66 H30        -0.8240   -1.1092   11.6197 H         1 <0>         0.0532
     67 H31         0.9162   -1.1851   11.2536 H         1 <0>         0.0534
     68 H32         0.2719    0.1483   12.2410 H         1 <0>         0.0548
     69 H33         1.5321    0.4159    7.3692 H         1 <0>         0.3704
     70 H34         1.2903   -1.0872    6.1378 H         1 <0>         0.3720
     71 H35        -1.0902   -4.9378    1.2324 H         1 <0>         0.4119
     72 H36         0.5050   -6.1137   -0.5577 H         1 <0>         0.1070
     73 H37        -1.0862   -6.9058   -0.6519 H         1 <0>         0.1083
     74 H38        -2.1849   -7.2361   -2.7939 H         1 <0>         0.1196
     75 H39        -1.8943   -7.5314   -5.2211 H         1 <0>         0.1229
     76 H40         0.1615   -6.7386   -6.3205 H         1 <0>         0.1223
     77 H41         1.9263   -5.6498   -4.9927 H         1 <0>         0.1228
     78 H42         1.6321   -5.3470   -2.5668 H         1 <0>         0.1193
@<TRIPOS>BOND
     1    1    2 1
     2    1   37 1
     3    1   38 1
     4    1   39 1
     5    2    7 ar
     6    2    3 ar
     7    3    4 ar
     8    3   40 1
     9    4    5 ar
    10    4   41 1
    11    5    6 ar
    12    5   27 1
    13    6    7 ar
    14    6   42 1
    15    7    8 1
    16    8    9 2
    17    8   10 am
    18   10   11 1
    19   10   43 1
    20   11   12 1
    21   11   19 1
    22   11   44 1
    23   12   13 1
    24   12   45 1
    25   12   46 1
    26   13   18 1
    27   13   14 1
    28   13   47 1
    29   14   15 1
    30   14   48 1
    31   14   49 1
    32   15   16 1
    33   15   50 1
    34   15   51 1
    35   16   17 1
    36   16   52 1
    37   16   53 1
    38   17   18 1
    39   17   54 1
    40   17   55 1
    41   18   56 1
    42   18   57 1
    43   19   20 1
    44   19   26 1
    45   19   58 1
    46   20   21 1
    47   20   25 1
    48   20   59 1
    49   21   22 1
    50   21   60 1
    51   21   61 1
    52   22   23 1
    53   22   24 1
    54   22   62 1
    55   23   63 1
    56   23   64 1
    57   23   65 1
    58   24   66 1
    59   24   67 1
    60   24   68 1
    61   25   69 1
    62   26   70 1
    63   27   28 am
    64   27   71 1
    65   28   29 2
    66   28   30 1
    67   30   31 1
    68   30   72 1
    69   30   73 1
    70   31   36 ar
    71   31   32 ar
    72   32   33 ar
    73   32   74 1
    74   33   34 ar
    75   33   75 1
    76   34   35 ar
    77   34   76 1
    78   35   36 ar
    79   35   77 1
    80   36   78 1
@<TRIPOS>MOLECULE
CHEMBL124540__2
   78    80     0     0     0
SMALL
USER_CHARGES

@<TRIPOS>ATOM
      1 C1         -1.7773    1.4261   -0.3400 C.3       1 <0>        -0.1207
      2 C2         -1.1224    0.0712   -0.4206 C.ar      1 <0>        -0.0344
      3 C3         -1.3834   -0.7589   -1.4920 C.ar      1 <0>        -0.1100
      4 C4         -0.7849   -2.0022   -1.5708 C.ar      1 <0>        -0.0907
      5 C5          0.0835   -2.4252   -0.5715 C.ar      1 <0>         0.1331
      6 C6          0.3523   -1.5991    0.5085 C.ar      1 <0>        -0.1080
      7 C7         -0.2473   -0.3420    0.5852 C.ar      1 <0>        -0.1163
      8 C8          0.0389    0.5477    1.7310 C.2       1 <0>         0.5706
      9 O1         -0.3950    1.6831    1.7421 O.2       1 <0>        -0.5283
     10 N1          0.7810    0.0998    2.7631 N.am      1 <0>        -0.7060
     11 C9          1.1507    1.0107    3.8492 C.3       1 <0>         0.1159
     12 C10         2.5451    1.5817    3.5836 C.3       1 <0>        -0.1213
     13 C11         2.8853    2.6170    4.6575 C.3       1 <0>        -0.0819
     14 C12         1.9364    3.8108    4.5337 C.3       1 <0>        -0.1172
     15 C13         2.2766    4.8462    5.6076 C.3       1 <0>        -0.1199
     16 C14         3.7193    5.3199    5.4205 C.3       1 <0>        -0.1209
     17 C15         4.6682    4.1261    5.5442 C.3       1 <0>        -0.1194
     18 C16         4.3280    3.0908    4.4703 C.3       1 <0>        -0.1123
     19 C17         1.1561    0.2476    5.1753 C.3       1 <0>         0.0647
     20 C18        -0.2014   -0.4275    5.3808 C.3       1 <0>         0.0747
     21 C19        -0.1556   -1.2912    6.6428 C.3       1 <0>        -0.1396
     22 C20        -1.5464   -1.8667    6.9177 C.3       1 <0>        -0.0936
     23 C21        -1.4747   -2.8286    8.1054 C.3       1 <0>        -0.1484
     24 C22        -2.5149   -0.7275    7.2417 C.3       1 <0>        -0.1511
     25 O2         -0.5001   -1.2502    4.2511 O.3       1 <0>        -0.5415
     26 O3          2.1830   -0.7458    5.1490 O.3       1 <0>        -0.5437
     27 N2          0.6863   -3.6855   -0.6556 N.am      1 <0>        -0.6757
     28 C23         0.9912   -4.2076   -1.8601 C.2       1 <0>         0.5132
     29 O4          0.8276   -3.5493   -2.8655 O.2       1 <0>        -0.5046
     30 C24         1.5355   -5.6095   -1.9577 C.3       1 <0>        -0.0995
     31 C25         1.7918   -5.9493   -3.4033 C.ar      1 <0>        -0.0740
     32 C26         0.7930   -6.5260   -4.1654 C.ar      1 <0>        -0.1045
     33 C27         1.0281   -6.8377   -5.4914 C.ar      1 <0>        -0.1186
     34 C28         2.2619   -6.5724   -6.0556 C.ar      1 <0>        -0.1166
     35 C29         3.2604   -5.9949   -5.2937 C.ar      1 <0>        -0.1186
     36 C30         3.0239   -5.6793   -3.9688 C.ar      1 <0>        -0.1041
     37 H1         -1.1004    2.1812   -0.7397 H         1 <0>         0.0741
     38 H2         -2.6988    1.4194   -0.9222 H         1 <0>         0.0572
     39 H3         -2.0064    1.6575    0.7002 H         1 <0>         0.0955
     40 H4         -2.0579   -0.4359   -2.2712 H         1 <0>         0.1331
     41 H5         -0.9930   -2.6473   -2.4115 H         1 <0>         0.1391
     42 H6          1.0266   -1.9262    1.2862 H         1 <0>         0.1245
     43 H7          1.0703   -0.8258    2.7867 H         1 <0>         0.3896
     44 H8          0.4285    1.8254    3.9018 H         1 <0>         0.1076
     45 H9          3.2788    0.7760    3.6104 H         1 <0>         0.0715
     46 H10         2.5625    2.0565    2.6026 H         1 <0>         0.0666
     47 H11         2.7759    2.1667    5.6441 H         1 <0>         0.0721
     48 H12         2.0459    4.2612    3.5472 H         1 <0>         0.0633
     49 H13         0.9086    3.4733    4.6671 H         1 <0>         0.0617
     50 H14         1.6006    5.6967    5.5195 H         1 <0>         0.0610
     51 H15         2.1672    4.3958    6.5942 H         1 <0>         0.0599
     52 H16         3.8288    5.7703    4.4339 H         1 <0>         0.0607
     53 H17         3.9617    6.0575    6.1855 H         1 <0>         0.0598
     54 H18         5.6961    4.4636    5.4109 H         1 <0>         0.0604
     55 H19         4.5588    3.6757    6.5308 H         1 <0>         0.0607
     56 H20         5.0040    2.2403    4.5585 H         1 <0>         0.0611
     57 H21         4.4375    3.5411    3.4838 H         1 <0>         0.0605
     58 H22         1.3438    0.9427    5.9937 H         1 <0>         0.1207
     59 H23        -0.9733    0.3343    5.4896 H         1 <0>         0.1101
     60 H24         0.5532   -2.1067    6.4995 H         1 <0>         0.0711
     61 H25         0.1589   -0.6810    7.4895 H         1 <0>         0.0718
     62 H26        -1.8982   -2.4032    6.0364 H         1 <0>         0.0755
     63 H27        -1.1228   -2.2921    8.9866 H         1 <0>         0.0533
     64 H28        -2.4655   -3.2386    8.3012 H         1 <0>         0.0546
     65 H29        -0.7847   -3.6402    7.8745 H         1 <0>         0.0529
     66 H30        -2.1630   -0.1911    8.1229 H         1 <0>         0.0531
     67 H31        -2.5659   -0.0423    6.3956 H         1 <0>         0.0556
     68 H32        -3.5057   -1.1375    7.4375 H         1 <0>         0.0546
     69 H33         0.1466   -1.9517    4.0935 H         1 <0>         0.3592
     70 H34         2.0799   -1.3995    4.4440 H         1 <0>         0.3632
     71 H35         0.8846   -4.1832    0.1531 H         1 <0>         0.4112
     72 H36         2.4682   -5.6770   -1.3977 H         1 <0>         0.1069
     73 H37         0.8110   -6.3103   -1.5426 H         1 <0>         0.1082
     74 H38        -0.1710   -6.7332   -3.7246 H         1 <0>         0.1197
     75 H39         0.2480   -7.2888   -6.0866 H         1 <0>         0.1229
     76 H40         2.4458   -6.8166   -7.0914 H         1 <0>         0.1223
     77 H41         4.2245   -5.7880   -5.7344 H         1 <0>         0.1228
     78 H42         3.8029   -5.2247   -3.3747 H         1 <0>         0.1194
@<TRIPOS>BOND
     1    1    2 1
     2    1   37 1
     3    1   38 1
     4    1   39 1
     5    2    7 ar
     6    2    3 ar
     7    3    4 ar
     8    3   40 1
     9    4    5 ar
    10    4   41 1
    11    5    6 ar
    12    5   27 1
    13    6    7 ar
    14    6   42 1
    15    7    8 1
    16    8    9 2
    17    8   10 am
    18   10   11 1
    19   10   43 1
    20   11   12 1
    21   11   19 1
    22   11   44 1
    23   12   13 1
    24   12   45 1
    25   12   46 1
    26   13   18 1
    27   13   14 1
    28   13   47 1
    29   14   15 1
    30   14   48 1
    31   14   49 1
    32   15   16 1
    33   15   50 1
    34   15   51 1
    35   16   17 1
    36   16   52 1
    37   16   53 1
    38   17   18 1
    39   17   54 1
    40   17   55 1
    41   18   56 1
    42   18   57 1
    43   19   20 1
    44   19   26 1
    45   19   58 1
    46   20   21 1
    47   20   25 1
    48   20   59 1
    49   21   22 1
    50   21   60 1
    51   21   61 1
    52   22   23 1
    53   22   24 1
    54   22   62 1
    55   23   63 1
    56   23   64 1
    57   23   65 1
    58   24   66 1
    59   24   67 1
    60   24   68 1
    61   25   69 1
    62   26   70 1
    63   27   28 am
    64   27   71 1
    65   28   29 2
    66   28   30 1
    67   30   31 1
    68   30   72 1
    69   30   73 1
    70   31   36 ar
    71   31   32 ar
    72   32   33 ar
    73   32   74 1
    74   33   34 ar
    75   33   75 1
    76   34   35 ar
    77   34   76 1
    78   35   36 ar
    79   35   77 1
    80   36   78 1
@<TRIPOS>MOLECULE
CHEMBL124540__3
   78    80     0     0     0
SMALL
USER_CHARGES

@<TRIPOS>ATOM
      1 C1          0.5504    1.1493   -0.5685 C.3       1 <0>        -0.1283
      2 C2          0.6671   -0.3493   -0.4608 C.ar      1 <0>        -0.0308
      3 C3          0.5243   -1.1353   -1.5863 C.ar      1 <0>        -0.1099
      4 C4          0.6309   -2.5101   -1.4928 C.ar      1 <0>        -0.0869
      5 C5          0.8823   -3.1105   -0.2647 C.ar      1 <0>         0.1336
      6 C6          1.0273   -2.3301    0.8714 C.ar      1 <0>        -0.1096
      7 C7          0.9254   -0.9421    0.7762 C.ar      1 <0>        -0.1235
      8 C8          1.0850   -0.1021    1.9825 C.2       1 <0>         0.5675
      9 O1          0.9224    1.1004    1.9116 O.2       1 <0>        -0.5178
     10 N1          1.4106   -0.6698    3.1607 N.am      1 <0>        -0.7232
     11 C9          1.6764    0.1713    4.3304 C.3       1 <0>         0.1197
     12 C10         3.1057    0.7121    4.2554 C.3       1 <0>        -0.1216
     13 C11         3.3658    1.6331    5.4492 C.3       1 <0>        -0.0812
     14 C12         2.4449    2.8519    5.3631 C.3       1 <0>        -0.1169
     15 C13         2.7050    3.7729    6.5569 C.3       1 <0>        -0.1196
     16 C14         4.1639    4.2335    6.5374 C.3       1 <0>        -0.1210
     17 C15         5.0848    3.0147    6.6234 C.3       1 <0>        -0.1192
     18 C16         4.8247    2.0937    5.4296 C.3       1 <0>        -0.1127
     19 C17         1.5119   -0.6599    5.6043 C.3       1 <0>         0.0668
     20 C18         0.1236   -1.3028    5.6180 C.3       1 <0>         0.0763
     21 C19        -0.0410   -2.1340    6.8919 C.3       1 <0>        -0.1443
     22 C20        -1.4050   -2.8270    6.8761 C.3       1 <0>        -0.0946
     23 C21        -1.4469   -3.8444    5.7342 C.3       1 <0>        -0.1492
     24 C22        -1.6273   -3.5460    8.2082 C.3       1 <0>        -0.1489
     25 O2         -0.8749   -0.2810    5.5837 O.3       1 <0>        -0.5467
     26 O3          2.5103   -1.6817    5.6386 O.3       1 <0>        -0.5416
     27 N2          0.9884   -4.5031   -0.1753 N.am      1 <0>        -0.6769
     28 C23         1.5275   -5.2046   -1.1922 C.2       1 <0>         0.5136
     29 O4          1.9946   -4.6237   -2.1490 O.2       1 <0>        -0.5045
     30 C24         1.5497   -6.7105   -1.1403 C.3       1 <0>        -0.0995
     31 C25         2.2012   -7.2466   -2.3890 C.ar      1 <0>        -0.0742
     32 C26         1.4338   -7.5215   -3.5054 C.ar      1 <0>        -0.1044
     33 C27         2.0313   -8.0133   -4.6509 C.ar      1 <0>        -0.1186
     34 C28         3.3963   -8.2296   -4.6800 C.ar      1 <0>        -0.1165
     35 C29         4.1638   -7.9537   -3.5639 C.ar      1 <0>        -0.1186
     36 C30         3.5669   -7.4580   -2.4199 C.ar      1 <0>        -0.1040
     37 H1          1.5460    1.5868   -0.6434 H         1 <0>         0.0729
     38 H2         -0.0270    1.4059   -1.4566 H         1 <0>         0.0588
     39 H3          0.0479    1.5392    0.3168 H         1 <0>         0.1036
     40 H4          0.3282   -0.6745   -2.5431 H         1 <0>         0.1344
     41 H5          0.5182   -3.1200   -2.3770 H         1 <0>         0.1386
     42 H6          1.2223   -2.7948    1.8266 H         1 <0>         0.1244
     43 H7          1.4689   -1.6352    3.2342 H         1 <0>         0.3895
     44 H8          0.9733    1.0040    4.3465 H         1 <0>         0.1066
     45 H9          3.8104   -0.1191    4.2775 H         1 <0>         0.0704
     46 H10         3.2340    1.2726    3.3294 H         1 <0>         0.0691
     47 H11         3.1678    1.0927    6.3748 H         1 <0>         0.0716
     48 H12         2.6430    3.3923    4.4375 H         1 <0>         0.0642
     49 H13         1.4056    2.5238    5.3771 H         1 <0>         0.0614
     50 H14         2.0490    4.6412    6.4956 H         1 <0>         0.0609
     51 H15         2.5070    3.2325    7.4826 H         1 <0>         0.0593
     52 H16         4.3619    4.7739    5.6117 H         1 <0>         0.0609
     53 H17         4.3492    4.8896    7.3878 H         1 <0>         0.0596
     54 H18         6.1241    3.3428    6.6094 H         1 <0>         0.0603
     55 H19         4.8867    2.4743    7.5491 H         1 <0>         0.0604
     56 H20         5.4807    1.2254    5.4909 H         1 <0>         0.0609
     57 H21         5.0227    2.6341    4.5039 H         1 <0>         0.0607
     58 H22         1.6222   -0.0148    6.4759 H         1 <0>         0.1164
     59 H23         0.0133   -1.9480    4.7464 H         1 <0>         0.0982
     60 H24         0.7475   -2.8850    6.9401 H         1 <0>         0.0795
     61 H25         0.0250   -1.4816    7.7626 H         1 <0>         0.0663
     62 H26        -2.1885   -2.0836    6.7293 H         1 <0>         0.0765
     63 H27        -0.6634   -4.5878    5.8810 H         1 <0>         0.0532
     64 H28        -2.4187   -4.3381    5.7229 H         1 <0>         0.0550
     65 H29        -1.2886   -3.3322    4.7852 H         1 <0>         0.0531
     66 H30        -0.7968   -4.2262    8.3969 H         1 <0>         0.0537
     67 H31        -1.6856   -2.8120    9.0119 H         1 <0>         0.0534
     68 H32        -2.5578   -4.1119    8.1648 H         1 <0>         0.0551
     69 H33        -0.8366    0.3315    6.3310 H         1 <0>         0.3750
     70 H34         2.4721   -2.2942    4.8913 H         1 <0>         0.3689
     71 H35         0.6741   -4.9635    0.6185 H         1 <0>         0.4115
     72 H36         2.1154   -7.0356   -0.2671 H         1 <0>         0.1071
     73 H37         0.5290   -7.0869   -1.0727 H         1 <0>         0.1083
     74 H38         0.3673   -7.3525   -3.4826 H         1 <0>         0.1197
     75 H39         1.4317   -8.2288   -5.5229 H         1 <0>         0.1230
     76 H40         3.8631   -8.6144   -5.5747 H         1 <0>         0.1224
     77 H41         5.2303   -8.1231   -3.5866 H         1 <0>         0.1229
     78 H42         4.1671   -7.2390   -1.5491 H         1 <0>         0.1194
@<TRIPOS>BOND
     1    1    2 1
     2    1   37 1
     3    1   38 1
     4    1   39 1
     5    2    7 ar
     6    2    3 ar
     7    3    4 ar
     8    3   40 1
     9    4    5 ar
    10    4   41 1
    11    5    6 ar
    12    5   27 1
    13    6    7 ar
    14    6   42 1
    15    7    8 1
    16    8    9 2
    17    8   10 am
    18   10   11 1
    19   10   43 1
    20   11   12 1
    21   11   19 1
    22   11   44 1
    23   12   13 1
    24   12   45 1
    25   12   46 1
    26   13   18 1
    27   13   14 1
    28   13   47 1
    29   14   15 1
    30   14   48 1
    31   14   49 1
    32   15   16 1
    33   15   50 1
    34   15   51 1
    35   16   17 1
    36   16   52 1
    37   16   53 1
    38   17   18 1
    39   17   54 1
    40   17   55 1
    41   18   56 1
    42   18   57 1
    43   19   20 1
    44   19   26 1
    45   19   58 1
    46   20   21 1
    47   20   25 1
    48   20   59 1
    49   21   22 1
    50   21   60 1
    51   21   61 1
    52   22   23 1
    53   22   24 1
    54   22   62 1
    55   23   63 1
    56   23   64 1
    57   23   65 1
    58   24   66 1
    59   24   67 1
    60   24   68 1
    61   25   69 1
    62   26   70 1
    63   27   28 am
    64   27   71 1
    65   28   29 2
    66   28   30 1
    67   30   31 1
    68   30   72 1
    69   30   73 1
    70   31   36 ar
    71   31   32 ar
    72   32   33 ar
    73   32   74 1
    74   33   34 ar
    75   33   75 1
    76   34   35 ar
    77   34   76 1
    78   35   36 ar
    79   35   77 1
    80   36   78 1
@<TRIPOS>MOLECULE
CHEMBL124540__4
   78    80     0     0     0
SMALL
USER_CHARGES

@<TRIPOS>ATOM
      1 C1          0.1035    1.7095    0.0312 C.3       1 <0>        -0.1279
      2 C2          0.1044    0.2050   -0.0553 C.ar      1 <0>        -0.0295
      3 C3         -0.0866   -0.4164   -1.2728 C.ar      1 <0>        -0.1125
      4 C4         -0.0861   -1.7959   -1.3575 C.ar      1 <0>        -0.0879
      5 C5          0.1062   -2.5668   -0.2171 C.ar      1 <0>         0.1303
      6 C6          0.2988   -1.9525    1.0103 C.ar      1 <0>        -0.1101
      7 C7          0.3041   -0.5601    1.0949 C.ar      1 <0>        -0.1240
      8 C8          0.5150    0.1030    2.3996 C.2       1 <0>         0.5646
      9 O1          0.4500    1.3139    2.4834 O.2       1 <0>        -0.5044
     10 N1          0.7793   -0.6352    3.4958 N.am      1 <0>        -0.7212
     11 C9          0.9883    0.0218    4.7884 C.3       1 <0>         0.1182
     12 C10        -0.3642    0.2680    5.4599 C.3       1 <0>        -0.1213
     13 C11        -1.1739    1.2631    4.6263 C.3       1 <0>        -0.0818
     14 C12        -0.4688    2.6210    4.6264 C.3       1 <0>        -0.1058
     15 C13        -1.2785    3.6162    3.7928 C.3       1 <0>        -0.1118
     16 C14        -2.6767    3.7675    4.3954 C.3       1 <0>        -0.1207
     17 C15        -3.3818    2.4096    4.3953 C.3       1 <0>        -0.1170
     18 C16        -2.5721    1.4144    5.2289 C.3       1 <0>        -0.1148
     19 C17         1.8464   -0.8747    5.6833 C.3       1 <0>         0.0671
     20 C18         3.1989   -1.1209    5.0118 C.3       1 <0>         0.0764
     21 C19         4.0570   -2.0174    5.9067 C.3       1 <0>        -0.1444
     22 C20         5.3586   -2.3655    5.1818 C.3       1 <0>        -0.0945
     23 C21         6.2699   -3.1572    6.1219 C.3       1 <0>        -0.1486
     24 C22         5.0437   -3.2102    3.9456 C.3       1 <0>        -0.1493
     25 O2          3.8646    0.1274    4.8096 O.3       1 <0>        -0.5474
     26 O3          1.1808   -2.1229    5.8855 O.3       1 <0>        -0.5431
     27 N2          0.1049   -3.9634   -0.3080 N.am      1 <0>        -0.6765
     28 C23         0.6179   -4.5682   -1.3977 C.2       1 <0>         0.5140
     29 O4          0.9984   -3.9030   -2.3379 O.2       1 <0>        -0.5054
     30 C24         0.7190   -6.0710   -1.4480 C.3       1 <0>        -0.0993
     31 C25         1.3223   -6.4901   -2.7638 C.ar      1 <0>        -0.0740
     32 C26         0.5055   -6.7343   -3.8521 C.ar      1 <0>        -0.1044
     33 C27         1.0589   -7.1187   -5.0591 C.ar      1 <0>        -0.1186
     34 C28         2.4290   -7.2586   -5.1780 C.ar      1 <0>        -0.1165
     35 C29         3.2458   -7.0136   -4.0900 C.ar      1 <0>        -0.1185
     36 C30         2.6927   -6.6250   -2.8841 C.ar      1 <0>        -0.1039
     37 H1          1.1303    2.0750    0.0152 H         1 <0>         0.0732
     38 H2         -0.4422    2.1219   -0.8174 H         1 <0>         0.0566
     39 H3         -0.3782    2.0198    0.9585 H         1 <0>         0.1050
     40 H4         -0.2372    0.1773   -2.1623 H         1 <0>         0.1331
     41 H5         -0.2361   -2.2765   -2.3130 H         1 <0>         0.1432
     42 H6          0.4481   -2.5498    1.8977 H         1 <0>         0.1241
     43 H7          0.8312   -1.6015    3.4288 H         1 <0>         0.3883
     44 H8          1.4960    0.9739    4.6342 H         1 <0>         0.1102
     45 H9         -0.9098   -0.6728    5.5337 H         1 <0>         0.0677
     46 H10        -0.2053    0.6751    6.4585 H         1 <0>         0.0691
     47 H11        -1.2570    0.8970    3.6030 H         1 <0>         0.0766
     48 H12        -0.3858    2.9872    5.6497 H         1 <0>         0.0446
     49 H13         0.5272    2.5132    4.1971 H         1 <0>         0.0801
     50 H14        -0.7762    4.5835    3.7928 H         1 <0>         0.0536
     51 H15        -1.3616    3.2500    2.7695 H         1 <0>         0.0643
     52 H16        -2.5936    4.1336    5.4187 H         1 <0>         0.0569
     53 H17        -3.2535    4.4764    3.8015 H         1 <0>         0.0561
     54 H18        -4.3779    2.5174    4.8246 H         1 <0>         0.0564
     55 H19        -3.4648    2.0434    3.3720 H         1 <0>         0.0582
     56 H20        -3.0744    0.4471    5.2288 H         1 <0>         0.0544
     57 H21        -2.4890    1.7806    6.2522 H         1 <0>         0.0574
     58 H22         2.0019   -0.3859    6.6451 H         1 <0>         0.1136
     59 H23         3.0434   -1.6097    4.0500 H         1 <0>         0.1002
     60 H24         4.2867   -1.4921    6.8338 H         1 <0>         0.0662
     61 H25         3.5113   -2.9332    6.1336 H         1 <0>         0.0795
     62 H26         5.8611   -1.4477    4.8764 H         1 <0>         0.0760
     63 H27         5.7674   -4.0750    6.4273 H         1 <0>         0.0536
     64 H28         7.1972   -3.4053    5.6055 H         1 <0>         0.0549
     65 H29         6.4942   -2.5555    7.0026 H         1 <0>         0.0535
     66 H30         4.5413   -4.1280    4.2511 H         1 <0>         0.0530
     67 H31         4.3945   -2.6462    3.2759 H         1 <0>         0.0533
     68 H32         5.9710   -3.4582    3.4292 H         1 <0>         0.0549
     69 H33         4.0359    0.6183    5.6249 H         1 <0>         0.3749
     70 H34         1.0094   -2.6139    5.0702 H         1 <0>         0.3681
     71 H35        -0.2654   -4.4960    0.4132 H         1 <0>         0.4116
     72 H36         1.3505   -6.4202   -0.6311 H         1 <0>         0.1075
     73 H37        -0.2758   -6.5055   -1.3495 H         1 <0>         0.1075
     74 H38        -0.5649   -6.6250   -3.7592 H         1 <0>         0.1197
     75 H39         0.4208   -7.3102   -5.9091 H         1 <0>         0.1230
     76 H40         2.8613   -7.5597   -6.1208 H         1 <0>         0.1224
     77 H41         4.3162   -7.1232   -4.1828 H         1 <0>         0.1228
     78 H42         3.3311   -6.4299   -2.0351 H         1 <0>         0.1192
@<TRIPOS>BOND
     1    1    2 1
     2    1   37 1
     3    1   38 1
     4    1   39 1
     5    2    7 ar
     6    2    3 ar
     7    3    4 ar
     8    3   40 1
     9    4    5 ar
    10    4   41 1
    11    5    6 ar
    12    5   27 1
    13    6    7 ar
    14    6   42 1
    15    7    8 1
    16    8    9 2
    17    8   10 am
    18   10   11 1
    19   10   43 1
    20   11   12 1
    21   11   19 1
    22   11   44 1
    23   12   13 1
    24   12   45 1
    25   12   46 1
    26   13   18 1
    27   13   14 1
    28   13   47 1
    29   14   15 1
    30   14   48 1
    31   14   49 1
    32   15   16 1
    33   15   50 1
    34   15   51 1
    35   16   17 1
    36   16   52 1
    37   16   53 1
    38   17   18 1
    39   17   54 1
    40   17   55 1
    41   18   56 1
    42   18   57 1
    43   19   20 1
    44   19   26 1
    45   19   58 1
    46   20   21 1
    47   20   25 1
    48   20   59 1
    49   21   22 1
    50   21   60 1
    51   21   61 1
    52   22   23 1
    53   22   24 1
    54   22   62 1
    55   23   63 1
    56   23   64 1
    57   23   65 1
    58   24   66 1
    59   24   67 1
    60   24   68 1
    61   25   69 1
    62   26   70 1
    63   27   28 am
    64   27   71 1
    65   28   29 2
    66   28   30 1
    67   30   31 1
    68   30   72 1
    69   30   73 1
    70   31   36 ar
    71   31   32 ar
    72   32   33 ar
    73   32   74 1
    74   33   34 ar
    75   33   75 1
    76   34   35 ar
    77   34   76 1
    78   35   36 ar
    79   35   77 1
    80   36   78 1
@<TRIPOS>MOLECULE
CHEMBL124540__5
   78    80     0     0     0
SMALL
USER_CHARGES

@<TRIPOS>ATOM
      1 C1          0.4905    1.8334   -0.1205 C.3       1 <0>        -0.1275
      2 C2          0.3941    0.3299   -0.0861 C.ar      1 <0>        -0.0320
      3 C3          0.3175   -0.3839   -1.2649 C.ar      1 <0>        -0.1114
      4 C4          0.2293   -1.7630   -1.2387 C.ar      1 <0>        -0.0890
      5 C5          0.2168   -2.4403   -0.0251 C.ar      1 <0>         0.1326
      6 C6          0.2933   -1.7327    1.1642 C.ar      1 <0>        -0.1068
      7 C7          0.3880   -0.3413    1.1377 C.ar      1 <0>        -0.1178
      8 C8          0.4761    0.4205    2.4019 C.2       1 <0>         0.5666
      9 O1          0.4791    1.6358    2.3802 O.2       1 <0>        -0.5131
     10 N1          0.5531   -0.2327    3.5783 N.am      1 <0>        -0.7053
     11 C9          0.6403    0.5221    4.8309 C.3       1 <0>         0.1209
     12 C10        -0.7670    0.8978    5.2990 C.3       1 <0>        -0.1215
     13 C11        -1.4003    1.8587    4.2907 C.3       1 <0>        -0.0818
     14 C12        -0.6150    3.1717    4.2748 C.3       1 <0>        -0.1055
     15 C13        -1.2483    4.1325    3.2666 C.3       1 <0>        -0.1117
     16 C14        -2.6982    4.4104    3.6682 C.3       1 <0>        -0.1207
     17 C15        -3.4836    3.0974    3.6841 C.3       1 <0>        -0.1169
     18 C16        -2.8503    2.1365    4.6923 C.3       1 <0>        -0.1148
     19 C17         1.3202   -0.3379    5.8982 C.3       1 <0>         0.0652
     20 C18         2.7276   -0.7136    5.4300 C.3       1 <0>         0.0737
     21 C19         3.3609   -1.6745    6.4383 C.3       1 <0>        -0.1407
     22 C20         4.7870   -2.0095    5.9971 C.3       1 <0>        -0.0936
     23 C21         5.6493   -0.7471    6.0571 C.3       1 <0>        -0.1505
     24 C22         5.3728   -3.0721    6.9291 C.3       1 <0>        -0.1486
     25 O2          2.6509   -1.3473    4.1515 O.3       1 <0>        -0.5408
     26 O3          0.5557   -1.5263    6.1105 O.3       1 <0>        -0.5443
     27 N2          0.1265   -3.8367   -0.0040 N.am      1 <0>        -0.6768
     28 C23         0.7158   -4.5649   -0.9730 C.2       1 <0>         0.5134
     29 O4          1.3989   -4.0174   -1.8124 O.2       1 <0>        -0.5044
     30 C24         0.5258   -6.0593   -1.0136 C.3       1 <0>        -0.0996
     31 C25         1.2832   -6.6303   -2.1846 C.ar      1 <0>        -0.0738
     32 C26         0.6668   -6.7454   -3.4166 C.ar      1 <0>        -0.1045
     33 C27         1.3616   -7.2692   -4.4908 C.ar      1 <0>        -0.1186
     34 C28         2.6728   -7.6775   -4.3331 C.ar      1 <0>        -0.1167
     35 C29         3.2894   -7.5616   -3.1014 C.ar      1 <0>        -0.1186
     36 C30         2.5961   -7.0338   -2.0282 C.ar      1 <0>        -0.1039
     37 H1          1.5346    2.1327   -0.0289 H         1 <0>         0.0719
     38 H2          0.0884    2.2018   -1.0643 H         1 <0>         0.0556
     39 H3         -0.0817    2.2532    0.7067 H         1 <0>         0.1056
     40 H4          0.3261    0.1369   -2.2110 H         1 <0>         0.1322
     41 H5          0.1697   -2.3161   -2.1644 H         1 <0>         0.1363
     42 H6          0.2833   -2.2572    2.1083 H         1 <0>         0.1231
     43 H7          0.5507   -1.2025    3.5956 H         1 <0>         0.3876
     44 H8          1.2235    1.4286    4.6689 H         1 <0>         0.1019
     45 H9         -1.3768   -0.0023    5.3756 H         1 <0>         0.0677
     46 H10        -0.7085    1.3812    6.2742 H         1 <0>         0.0691
     47 H11        -1.3779    1.4099    3.2977 H         1 <0>         0.0775
     48 H12        -0.6373    3.6205    5.2679 H         1 <0>         0.0444
     49 H13         0.4180    2.9738    3.9887 H         1 <0>         0.0791
     50 H14        -0.6888    5.0679    3.2552 H         1 <0>         0.0532
     51 H15        -1.2259    3.6837    2.2735 H         1 <0>         0.0648
     52 H16        -2.7206    4.8591    4.6612 H         1 <0>         0.0567
     53 H17        -3.1494    5.0949    2.9499 H         1 <0>         0.0560
     54 H18        -4.5165    3.2953    3.9702 H         1 <0>         0.0562
     55 H19        -3.4612    2.6486    2.6910 H         1 <0>         0.0583
     56 H20        -3.4097    1.2011    4.7037 H         1 <0>         0.0544
     57 H21        -2.8726    2.5853    5.6854 H         1 <0>         0.0572
     58 H22         1.3852    0.2237    6.8301 H         1 <0>         0.1205
     59 H23         3.3374    0.1865    5.3535 H         1 <0>         0.1110
     60 H24         3.3856   -1.2049    7.4216 H         1 <0>         0.0724
     61 H25         2.7712   -2.5899    6.4876 H         1 <0>         0.0715
     62 H26         4.7714   -2.3906    4.9760 H         1 <0>         0.0758
     63 H27         5.6650   -0.3660    7.0782 H         1 <0>         0.0529
     64 H28         6.6654   -0.9858    5.7428 H         1 <0>         0.0543
     65 H29         5.2320    0.0099    5.3931 H         1 <0>         0.0555
     66 H30         5.3072   -2.7265    7.9608 H         1 <0>         0.0534
     67 H31         4.8115   -4.0001    6.8204 H         1 <0>         0.0527
     68 H32         6.4171   -3.2467    6.6701 H         1 <0>         0.0548
     69 H33         2.1223   -2.1570    4.1449 H         1 <0>         0.3593
     70 H34         0.4565   -2.0764    5.3214 H         1 <0>         0.3633
     71 H35        -0.3602   -4.2806    0.7081 H         1 <0>         0.4109
     72 H36         0.9009   -6.4985   -0.0892 H         1 <0>         0.1067
     73 H37        -0.5346   -6.2880   -1.1203 H         1 <0>         0.1079
     74 H38        -0.3576   -6.4264   -3.5398 H         1 <0>         0.1196
     75 H39         0.8798   -7.3598   -5.4531 H         1 <0>         0.1229
     76 H40         3.2154   -8.0874   -5.1722 H         1 <0>         0.1223
     77 H41         4.3138   -7.8809   -2.9781 H         1 <0>         0.1228
     78 H42         3.0790   -6.9398   -1.0668 H         1 <0>         0.1194
@<TRIPOS>BOND
     1    1    2 1
     2    1   37 1
     3    1   38 1
     4    1   39 1
     5    2    7 ar
     6    2    3 ar
     7    3    4 ar
     8    3   40 1
     9    4    5 ar
    10    4   41 1
    11    5    6 ar
    12    5   27 1
    13    6    7 ar
    14    6   42 1
    15    7    8 1
    16    8    9 2
    17    8   10 am
    18   10   11 1
    19   10   43 1
    20   11   12 1
    21   11   19 1
    22   11   44 1
    23   12   13 1
    24   12   45 1
    25   12   46 1
    26   13   18 1
    27   13   14 1
    28   13   47 1
    29   14   15 1
    30   14   48 1
    31   14   49 1
    32   15   16 1
    33   15   50 1
    34   15   51 1
    35   16   17 1
    36   16   52 1
    37   16   53 1
    38   17   18 1
    39   17   54 1
    40   17   55 1
    41   18   56 1
    42   18   57 1
    43   19   20 1
    44   19   26 1
    45   19   58 1
    46   20   21 1
    47   20   25 1
    48   20   59 1
    49   21   22 1
    50   21   60 1
    51   21   61 1
    52   22   23 1
    53   22   24 1
    54   22   62 1
    55   23   63 1
    56   23   64 1
    57   23   65 1
    58   24   66 1
    59   24   67 1
    60   24   68 1
    61   25   69 1
    62   26   70 1
    63   27   28 am
    64   27   71 1
    65   28   29 2
    66   28   30 1
    67   30   31 1
    68   30   72 1
    69   30   73 1
    70   31   36 ar
    71   31   32 ar
    72   32   33 ar
    73   32   74 1
    74   33   34 ar
    75   33   75 1
    76   34   35 ar
    77   34   76 1
    78   35   36 ar
    79   35   77 1
    80   36   78 1
@<TRIPOS>MOLECULE
CHEMBL124540__6
   78    80     0     0     0
SMALL
USER_CHARGES

@<TRIPOS>ATOM
      1 C1          0.0061    1.9568    0.1385 C.3       1 <0>        -0.1277
      2 C2          0.0672    0.4545    0.0363 C.ar      1 <0>        -0.0303
      3 C3         -0.0052   -0.1567   -1.1991 C.ar      1 <0>        -0.1109
      4 C4          0.0509   -1.5341   -1.2982 C.ar      1 <0>        -0.0875
      5 C5          0.1801   -2.3131   -0.1544 C.ar      1 <0>         0.1332
      6 C6          0.2537   -1.7090    1.0908 C.ar      1 <0>        -0.1105
      7 C7          0.2029   -0.3186    1.1904 C.ar      1 <0>        -0.1225
      8 C8          0.2868    0.3338    2.5146 C.2       1 <0>         0.5638
      9 O1          0.1631    1.5395    2.6071 O.2       1 <0>        -0.5063
     10 N1          0.5005   -0.4083    3.6192 N.am      1 <0>        -0.7187
     11 C9          0.5836    0.2381    4.9312 C.3       1 <0>         0.1180
     12 C10        -0.8247    0.4167    5.5020 C.3       1 <0>        -0.1238
     13 C11        -1.5987    1.4204    4.6451 C.3       1 <0>        -0.0825
     14 C12        -0.9406    2.7974    4.7530 C.3       1 <0>        -0.1038
     15 C13        -1.7146    3.8012    3.8961 C.3       1 <0>        -0.1125
     16 C14        -3.1599    3.8865    4.3909 C.3       1 <0>        -0.1205
     17 C15        -3.8180    2.5095    4.2830 C.3       1 <0>        -0.1171
     18 C16        -3.0440    1.5057    5.1399 C.3       1 <0>        -0.1149
     19 C17         1.4108   -0.6340    5.8779 C.3       1 <0>         0.0679
     20 C18         2.8501   -0.7193    5.3661 C.3       1 <0>         0.0742
     21 C19         3.6822   -1.5742    6.3240 C.3       1 <0>        -0.1414
     22 C20         5.0875   -1.7630    5.7492 C.3       1 <0>        -0.0949
     23 C21         5.9566   -2.5110    6.7622 C.3       1 <0>        -0.1485
     24 C22         5.0041   -2.5719    4.4532 C.3       1 <0>        -0.1501
     25 O2          3.4081    0.5942    5.2928 O.3       1 <0>        -0.5486
     26 O3          1.4035   -0.0574    7.1854 O.3       1 <0>        -0.5430
     27 N2          0.2355   -3.7076   -0.2601 N.am      1 <0>        -0.6773
     28 C23         0.8387   -4.2795   -1.3210 C.2       1 <0>         0.5136
     29 O4          1.4139   -3.5899   -2.1362 O.2       1 <0>        -0.5044
     30 C24         0.7983   -5.7760   -1.4944 C.3       1 <0>        -0.0996
     31 C25         1.5410   -6.1565   -2.7492 C.ar      1 <0>        -0.0740
     32 C26         0.8698   -6.2252   -3.9557 C.ar      1 <0>        -0.1044
     33 C27         1.5511   -6.5742   -5.1068 C.ar      1 <0>        -0.1185
     34 C28         2.9037   -6.8541   -5.0514 C.ar      1 <0>        -0.1165
     35 C29         3.5751   -6.7845   -3.8451 C.ar      1 <0>        -0.1186
     36 C30         2.8947   -6.4313   -2.6948 C.ar      1 <0>        -0.1040
     37 H1          1.0173    2.3577    0.2085 H         1 <0>         0.0730
     38 H2         -0.4847    2.3616   -0.7467 H         1 <0>         0.0566
     39 H3         -0.5586    2.2379    1.0275 H         1 <0>         0.1052
     40 H4         -0.1064    0.4434   -2.0914 H         1 <0>         0.1333
     41 H5         -0.0063   -2.0067   -2.2676 H         1 <0>         0.1371
     42 H6          0.3537   -2.3127    1.9808 H         1 <0>         0.1256
     43 H7          0.5992   -1.3705    3.5454 H         1 <0>         0.3941
     44 H8          1.0595    1.2131    4.8264 H         1 <0>         0.1057
     45 H9         -1.3433   -0.5420    5.4962 H         1 <0>         0.0603
     46 H10        -0.7579    0.7875    6.5248 H         1 <0>         0.0782
     47 H11        -1.5894    1.0937    3.6052 H         1 <0>         0.0777
     48 H12        -0.9499    3.1241    5.7928 H         1 <0>         0.0455
     49 H13         0.0890    2.7367    4.4004 H         1 <0>         0.0768
     50 H14        -1.2458    4.7822    3.9729 H         1 <0>         0.0537
     51 H15        -1.7053    3.4745    2.8562 H         1 <0>         0.0645
     52 H16        -3.1692    4.2131    5.4308 H         1 <0>         0.0571
     53 H17        -3.7113    4.6016    3.7804 H         1 <0>         0.0562
     54 H18        -4.8476    2.5702    4.6355 H         1 <0>         0.0564
     55 H19        -3.8087    2.1828    3.2432 H         1 <0>         0.0583
     56 H20        -3.5128    0.5247    5.0630 H         1 <0>         0.0539
     57 H21        -3.0533    1.8324    6.1797 H         1 <0>         0.0578
     58 H22         0.9802   -1.6345    5.9197 H         1 <0>         0.1070
     59 H23         2.8570   -1.1728    4.3749 H         1 <0>         0.1073
     60 H24         3.7491   -1.0758    7.2910 H         1 <0>         0.0729
     61 H25         3.2070   -2.5472    6.4487 H         1 <0>         0.0708
     62 H26         5.5291   -0.7883    5.5414 H         1 <0>         0.0763
     63 H27         5.5151   -3.4857    6.9701 H         1 <0>         0.0531
     64 H28         6.9578   -2.6455    6.3528 H         1 <0>         0.0549
     65 H29         6.0160   -1.9347    7.6855 H         1 <0>         0.0539
     66 H30         4.5626   -3.5465    4.6611 H         1 <0>         0.0525
     67 H31         4.3850   -2.0390    3.7316 H         1 <0>         0.0543
     68 H32         6.0053   -2.7063    4.0438 H         1 <0>         0.0551
     69 H33         3.4338    1.0585    6.1407 H         1 <0>         0.3697
     70 H34         1.7732    0.8354    7.2235 H         1 <0>         0.3743
     71 H35        -0.1602   -4.2624    0.4302 H         1 <0>         0.4114
     72 H36         1.2682   -6.2541   -0.6349 H         1 <0>         0.1068
     73 H37        -0.2380   -6.1050   -1.5717 H         1 <0>         0.1082
     74 H38        -0.1869   -6.0065   -3.9990 H         1 <0>         0.1196
     75 H39         1.0266   -6.6286   -6.0493 H         1 <0>         0.1230
     76 H40         3.4358   -7.1275   -5.9506 H         1 <0>         0.1224
     77 H41         4.6318   -7.0035   -3.8017 H         1 <0>         0.1229
     78 H42         3.4200   -6.3733   -1.7529 H         1 <0>         0.1193
@<TRIPOS>BOND
     1    1    2 1
     2    1   37 1
     3    1   38 1
     4    1   39 1
     5    2    7 ar
     6    2    3 ar
     7    3    4 ar
     8    3   40 1
     9    4    5 ar
    10    4   41 1
    11    5    6 ar
    12    5   27 1
    13    6    7 ar
    14    6   42 1
    15    7    8 1
    16    8    9 2
    17    8   10 am
    18   10   11 1
    19   10   43 1
    20   11   12 1
    21   11   19 1
    22   11   44 1
    23   12   13 1
    24   12   45 1
    25   12   46 1
    26   13   18 1
    27   13   14 1
    28   13   47 1
    29   14   15 1
    30   14   48 1
    31   14   49 1
    32   15   16 1
    33   15   50 1
    34   15   51 1
    35   16   17 1
    36   16   52 1
    37   16   53 1
    38   17   18 1
    39   17   54 1
    40   17   55 1
    41   18   56 1
    42   18   57 1
    43   19   20 1
    44   19   26 1
    45   19   58 1
    46   20   21 1
    47   20   25 1
    48   20   59 1
    49   21   22 1
    50   21   60 1
    51   21   61 1
    52   22   23 1
    53   22   24 1
    54   22   62 1
    55   23   63 1
    56   23   64 1
    57   23   65 1
    58   24   66 1
    59   24   67 1
    60   24   68 1
    61   25   69 1
    62   26   70 1
    63   27   28 am
    64   27   71 1
    65   28   29 2
    66   28   30 1
    67   30   31 1
    68   30   72 1
    69   30   73 1
    70   31   36 ar
    71   31   32 ar
    72   32   33 ar
    73   32   74 1
    74   33   34 ar
    75   33   75 1
    76   34   35 ar
    77   34   76 1
    78   35   36 ar
    79   35   77 1
    80   36   78 1
@<TRIPOS>MOLECULE
CHEMBL124540__7
   78    80     0     0     0
SMALL
USER_CHARGES

@<TRIPOS>ATOM
      1 C1         -0.0683    0.9965   -0.1127 C.3       1 <0>        -0.1278
      2 C2         -0.0224   -0.5030    0.0309 C.ar      1 <0>        -0.0311
      3 C3         -0.0920   -1.3060   -1.0895 C.ar      1 <0>        -0.1118
      4 C4         -0.0498   -2.6817   -0.9632 C.ar      1 <0>        -0.0875
      5 C5          0.0625   -3.2658    0.2930 C.ar      1 <0>         0.1327
      6 C6          0.1331   -2.4682    1.4243 C.ar      1 <0>        -0.1091
      7 C7          0.0963   -1.0796    1.2964 C.ar      1 <0>        -0.1237
      8 C8          0.1772   -0.2216    2.4979 C.2       1 <0>         0.5596
      9 O1          0.0660    0.9841    2.3922 O.2       1 <0>        -0.5098
     10 N1          0.3742   -0.7766    3.7102 N.am      1 <0>        -0.7188
     11 C9          0.4544    0.0735    4.9006 C.3       1 <0>         0.1166
     12 C10        -0.9562    0.3559    5.4216 C.3       1 <0>        -0.1331
     13 C11        -1.7265    1.1793    4.3874 C.3       1 <0>        -0.0783
     14 C12        -1.0686    2.5522    4.2359 C.3       1 <0>        -0.1033
     15 C13        -1.8389    3.3756    3.2017 C.3       1 <0>        -0.1122
     16 C14        -3.2862    3.5520    3.6655 C.3       1 <0>        -0.1208
     17 C15        -3.9441    2.1790    3.8170 C.3       1 <0>        -0.1168
     18 C16        -3.1738    1.3556    4.8512 C.3       1 <0>        -0.1155
     19 C17         1.2646   -0.6411    5.9840 C.3       1 <0>         0.0679
     20 C18         1.4544    0.2947    7.1795 C.3       1 <0>         0.0781
     21 C19         2.2646   -0.4199    8.2629 C.3       1 <0>        -0.1429
     22 C20         2.4121    0.4978    9.4782 C.3       1 <0>        -0.0944
     23 C21         1.0375    0.7381   10.1056 C.3       1 <0>        -0.1500
     24 C22         3.3337   -0.1614   10.5063 C.3       1 <0>        -0.1490
     25 O2          2.1523    1.4688    6.7594 O.3       1 <0>        -0.5486
     26 O3          0.5667   -1.8152    6.4042 O.3       1 <0>        -0.5517
     27 N2          0.1038   -4.6593    0.4156 N.am      1 <0>        -0.6770
     28 C23         0.7085   -5.4016   -0.5331 C.2       1 <0>         0.5138
     29 O4          1.2944   -4.8589   -1.4459 O.2       1 <0>        -0.5053
     30 C24         0.6565   -6.9059   -0.4597 C.3       1 <0>        -0.0998
     31 C25         1.4034   -7.4921   -1.6300 C.ar      1 <0>        -0.0737
     32 C26         0.7389   -7.7523   -2.8138 C.ar      1 <0>        -0.1045
     33 C27         1.4240   -8.2900   -3.8873 C.ar      1 <0>        -0.1186
     34 C28         2.7738   -8.5670   -3.7770 C.ar      1 <0>        -0.1167
     35 C29         3.4386   -8.3060   -2.5935 C.ar      1 <0>        -0.1186
     36 C30         2.7543   -7.7643   -1.5214 C.ar      1 <0>        -0.1041
     37 H1          0.9467    1.3937   -0.1021 H         1 <0>         0.0723
     38 H2         -0.5505    1.2566   -1.0550 H         1 <0>         0.0565
     39 H3         -0.6343    1.4236    0.7152 H         1 <0>         0.1057
     40 H4         -0.1800   -0.8579   -2.0682 H         1 <0>         0.1331
     41 H5         -0.1047   -3.3049   -1.8435 H         1 <0>         0.1372
     42 H6          0.2200   -2.9202    2.4013 H         1 <0>         0.1275
     43 H7          0.4630   -1.7388    3.7945 H         1 <0>         0.4002
     44 H8          0.9417    1.0140    4.6434 H         1 <0>         0.1112
     45 H9         -1.4750   -0.5869    5.5949 H         1 <0>         0.0627
     46 H10        -0.8936    0.9133    6.3562 H         1 <0>         0.0733
     47 H11        -1.7130    0.6620    3.4280 H         1 <0>         0.0773
     48 H12        -1.0822    3.0695    5.1953 H         1 <0>         0.0459
     49 H13        -0.0376    2.4266    3.9054 H         1 <0>         0.0803
     50 H14        -1.3702    4.3537    3.0938 H         1 <0>         0.0539
     51 H15        -1.8254    2.8584    2.2423 H         1 <0>         0.0640
     52 H16        -3.2998    4.0692    4.6249 H         1 <0>         0.0571
     53 H17        -3.8350    4.1385    2.9287 H         1 <0>         0.0562
     54 H18        -4.9752    2.3046    4.1475 H         1 <0>         0.0565
     55 H19        -3.9306    1.6618    2.8576 H         1 <0>         0.0584
     56 H20        -3.6425    0.3775    4.9592 H         1 <0>         0.0541
     57 H21        -3.1874    1.8729    5.8106 H         1 <0>         0.0576
     58 H22         2.2389   -0.9213    5.5837 H         1 <0>         0.1048
     59 H23         0.4801    0.5749    7.5799 H         1 <0>         0.1068
     60 H24         1.7496   -1.3340    8.5583 H         1 <0>         0.0796
     61 H25         3.2519   -0.6687    7.8736 H         1 <0>         0.0651
     62 H26         2.8398    1.4500    9.1647 H         1 <0>         0.0769
     63 H27         0.6097   -0.2142   10.4192 H         1 <0>         0.0531
     64 H28         1.1425    1.3919   10.9714 H         1 <0>         0.0549
     65 H29         0.3809    1.2077    9.3732 H         1 <0>         0.0548
     66 H30         2.9522   -1.1521   10.7538 H         1 <0>         0.0535
     67 H31         4.3368   -0.2521   10.0896 H         1 <0>         0.0529
     68 H32         3.3686    0.4501   11.4079 H         1 <0>         0.0553
     69 H33         3.0294    1.2944    6.3914 H         1 <0>         0.3756
     70 H34        -0.3104   -1.6408    6.7722 H         1 <0>         0.3773
     71 H35        -0.3026   -5.0910    1.1833 H         1 <0>         0.4118
     72 H36         1.1171   -7.2405    0.4698 H         1 <0>         0.1071
     73 H37        -0.3821   -7.2355   -0.4896 H         1 <0>         0.1083
     74 H38        -0.3157   -7.5358   -2.9000 H         1 <0>         0.1197
     75 H39         0.9047   -8.4939   -4.8120 H         1 <0>         0.1230
     76 H40         3.3090   -8.9877   -4.6155 H         1 <0>         0.1223
     77 H41         4.4931   -8.5227   -2.5072 H         1 <0>         0.1229
     78 H42         3.2745   -7.5569   -0.5979 H         1 <0>         0.1194
@<TRIPOS>BOND
     1    1    2 1
     2    1   37 1
     3    1   38 1
     4    1   39 1
     5    2    7 ar
     6    2    3 ar
     7    3    4 ar
     8    3   40 1
     9    4    5 ar
    10    4   41 1
    11    5    6 ar
    12    5   27 1
    13    6    7 ar
    14    6   42 1
    15    7    8 1
    16    8    9 2
    17    8   10 am
    18   10   11 1
    19   10   43 1
    20   11   12 1
    21   11   19 1
    22   11   44 1
    23   12   13 1
    24   12   45 1
    25   12   46 1
    26   13   18 1
    27   13   14 1
    28   13   47 1
    29   14   15 1
    30   14   48 1
    31   14   49 1
    32   15   16 1
    33   15   50 1
    34   15   51 1
    35   16   17 1
    36   16   52 1
    37   16   53 1
    38   17   18 1
    39   17   54 1
    40   17   55 1
    41   18   56 1
    42   18   57 1
    43   19   20 1
    44   19   26 1
    45   19   58 1
    46   20   21 1
    47   20   25 1
    48   20   59 1
    49   21   22 1
    50   21   60 1
    51   21   61 1
    52   22   23 1
    53   22   24 1
    54   22   62 1
    55   23   63 1
    56   23   64 1
    57   23   65 1
    58   24   66 1
    59   24   67 1
    60   24   68 1
    61   25   69 1
    62   26   70 1
    63   27   28 am
    64   27   71 1
    65   28   29 2
    66   28   30 1
    67   30   31 1
    68   30   72 1
    69   30   73 1
    70   31   36 ar
    71   31   32 ar
    72   32   33 ar
    73   32   74 1
    74   33   34 ar
    75   33   75 1
    76   34   35 ar
    77   34   76 1
    78   35   36 ar
    79   35   77 1
    80   36   78 1
@<TRIPOS>MOLECULE
CHEMBL539164
   69    72     0     0     0
SMALL
USER_CHARGES

@<TRIPOS>ATOM
      1 C1          0.7392    1.6884    1.8237 C.3       1 <0>         0.0268
      2 O1          0.5845    0.2842    1.6086 O.3       1 <0>        -0.3182
      3 C2          0.8873   -0.1873    0.3705 C.ar      1 <0>         0.1304
      4 C3          1.3297    0.6829   -0.6155 C.ar      1 <0>        -0.2076
      5 C4          1.6372    0.2011   -1.8729 C.ar      1 <0>        -0.0799
      6 C5          1.5044   -1.1473   -2.1496 C.ar      1 <0>        -0.1573
      7 C6          1.0634   -2.0163   -1.1691 C.ar      1 <0>        -0.0590
      8 C7          0.7599   -1.5402    0.0920 C.ar      1 <0>        -0.1233
      9 C8          0.2851   -2.4890    1.1622 C.3       1 <0>         0.1172
     10 O2          0.2375   -3.8164    0.6351 O.3       1 <0>        -0.3832
     11 C9         -0.2027   -4.7993    1.5742 C.3       1 <0>         0.0685
     12 C10        -0.2145   -6.1751    0.9048 C.3       1 <0>        -0.1191
     13 C11        -0.6859   -7.2275    1.9104 C.3       1 <0>         0.0633
     14 O3         -0.6969   -8.5124    1.2851 O.3       1 <0>        -0.3107
     15 C12        -1.0943   -9.5662    2.0470 C.ar      1 <0>         0.1343
     16 C13        -1.4708   -9.3646    3.3668 C.ar      1 <0>        -0.2009
     17 C14        -1.8744  -10.4344    4.1411 C.ar      1 <0>        -0.0511
     18 C15        -1.9034  -11.7120    3.5983 C.ar      1 <0>         0.1023
     19 C16        -1.5264  -11.9131    2.2772 C.ar      1 <0>        -0.0823
     20 C17        -1.1284  -10.8416    1.5024 C.ar      1 <0>        -0.1420
     21 N1         -2.3124  -12.7979    4.3835 N.am      1 <0>        -0.5520
     22 C18        -1.3221  -13.8069    4.7485 C.3       1 <0>         0.1106
     23 H1         -1.1483  -14.4671    3.8987 H         1 <0>         0.0926
     24 C19        -1.8252  -14.6299    5.9360 C.3       1 <0>         0.0470
     25 N2         -3.1892  -15.0985    5.6421 N.3       1 <0>        -0.6742
     26 C20        -4.1243  -13.9656    5.6378 C.3       1 <0>         0.0478
     27 C21        -3.5910  -12.8613    4.7697 C.2       1 <0>         0.4855
     28 O4         -4.3534  -11.9935    4.3999 O.2       1 <0>        -0.5316
     29 C22        -0.0114  -13.1166    5.1314 C.3       1 <0>         0.0522
     30 O5         -0.2153  -12.3230    6.3021 O.3       1 <0>        -0.3711
     31 C23         0.9537  -11.6319    6.7466 C.3       1 <0>         0.1096
     32 C24         0.6253  -10.8311    7.9803 C.ar      1 <0>        -0.1435
     33 C25         0.1742   -9.5245    7.8698 C.ar      1 <0>        -0.0538
     34 C26        -0.1157   -8.8260    9.0316 C.ar      1 <0>        -0.1749
     35 C27         0.0533   -9.4508   10.2530 C.ar      1 <0>         0.1058
     36 N3          0.4848  -10.6950   10.3202 N.ar      1 <0>        -0.4854
     37 C28         0.7643  -11.3915    9.2357 C.ar      1 <0>         0.1211
     38 H2          1.7773    1.9707    1.6486 H         1 <0>         0.0566
     39 H3          0.0933    2.2346    1.1363 H         1 <0>         0.0567
     40 H4          0.4649    1.9311    2.8504 H         1 <0>         0.1014
     41 H5          1.4333    1.7361   -0.4000 H         1 <0>         0.1299
     42 H6          1.9814    0.8781   -2.6408 H         1 <0>         0.1257
     43 H7          1.7454   -1.5220   -3.1334 H         1 <0>         0.1259
     44 H8          0.9601   -3.0689   -1.3877 H         1 <0>         0.1395
     45 H9          0.9735   -2.4580    2.0068 H         1 <0>         0.0639
     46 H10        -0.7104   -2.1939    1.4938 H         1 <0>         0.0641
     47 H11         0.4756   -4.8162    2.4273 H         1 <0>         0.0536
     48 H12        -1.2083   -4.5521    1.9144 H         1 <0>         0.0543
     49 H13        -0.8928   -6.1582    0.0517 H         1 <0>         0.0849
     50 H14         0.7911   -6.4223    0.5646 H         1 <0>         0.0844
     51 H15        -0.0076   -7.2444    2.7635 H         1 <0>         0.0647
     52 H16        -1.6915   -6.9803    2.2505 H         1 <0>         0.0660
     53 H17        -1.4478   -8.3708    3.7890 H         1 <0>         0.1301
     54 H18        -2.1671  -10.2773    5.1688 H         1 <0>         0.1240
     55 H19        -1.5483  -12.9067    1.8546 H         1 <0>         0.1296
     56 H20        -0.8394  -10.9972    0.4735 H         1 <0>         0.1361
     57 H21        -1.1697  -15.4868    6.0908 H         1 <0>         0.1018
     58 H22        -1.8370  -14.0093    6.8320 H         1 <0>         0.0983
     59 H23        -3.2195  -15.5958    4.7647 H         1 <0>         0.3486
     60 H24        -5.0904  -14.2952    5.2555 H         1 <0>         0.1152
     61 H25        -4.2471  -13.5939    6.6551 H         1 <0>         0.1129
     62 H26         0.7509  -13.8696    5.3311 H         1 <0>         0.0695
     63 H27         0.3154  -12.4772    4.3114 H         1 <0>         0.0610
     64 H28         1.7361  -12.3540    6.9798 H         1 <0>         0.0640
     65 H29         1.3006  -10.9616    5.9601 H         1 <0>         0.0597
     66 H30         0.0520   -9.0618    6.9016 H         1 <0>         0.1324
     67 H31        -0.4687   -7.8065    8.9832 H         1 <0>         0.1372
     68 H32        -0.1703   -8.9136   11.1628 H         1 <0>         0.1579
     69 H33         1.1104  -12.4102    9.3301 H         1 <0>         0.1559
@<TRIPOS>BOND
     1    1    2 1
     2    1   38 1
     3    1   39 1
     4    1   40 1
     5    2    3 1
     6    3    8 ar
     7    3    4 ar
     8    4    5 ar
     9    4   41 1
    10    5    6 ar
    11    5   42 1
    12    6    7 ar
    13    6   43 1
    14    7    8 ar
    15    7   44 1
    16    8    9 1
    17    9   10 1
    18    9   45 1
    19    9   46 1
    20   10   11 1
    21   11   12 1
    22   11   47 1
    23   11   48 1
    24   12   13 1
    25   12   49 1
    26   12   50 1
    27   13   14 1
    28   13   51 1
    29   13   52 1
    30   14   15 1
    31   15   20 ar
    32   15   16 ar
    33   16   17 ar
    34   16   53 1
    35   17   18 ar
    36   17   54 1
    37   18   19 ar
    38   18   21 1
    39   19   20 ar
    40   19   55 1
    41   20   56 1
    42   21   27 am
    43   21   22 1
    44   22   23 1
    45   22   24 1
    46   22   29 1
    47   24   25 1
    48   24   57 1
    49   24   58 1
    50   25   26 1
    51   25   59 1
    52   26   27 1
    53   26   60 1
    54   26   61 1
    55   27   28 2
    56   29   30 1
    57   29   62 1
    58   29   63 1
    59   30   31 1
    60   31   32 1
    61   31   64 1
    62   31   65 1
    63   32   37 ar
    64   32   33 ar
    65   33   34 ar
    66   33   66 1
    67   34   35 ar
    68   34   67 1
    69   35   36 ar
    70   35   68 1
    71   36   37 ar
    72   37   69 1
@<TRIPOS>MOLECULE
CHEMBL539164__1
   70    73     0     0     0
SMALL
USER_CHARGES

@<TRIPOS>ATOM
      1 C1         -1.9828    1.6318   -0.0720 C.3       1 <0>         0.0265
      2 O1         -1.6985    0.2331   -0.1413 O.3       1 <0>        -0.3190
      3 C2         -0.7727   -0.2521    0.7274 C.ar      1 <0>         0.1306
      4 C3         -0.1548    0.5997    1.6318 C.ar      1 <0>        -0.2070
      5 C4          0.7854    0.1041    2.5139 C.ar      1 <0>        -0.0786
      6 C5          1.1111   -1.2398    2.4962 C.ar      1 <0>        -0.1573
      7 C6          0.4973   -2.0904    1.5957 C.ar      1 <0>        -0.0592
      8 C7         -0.4481   -1.6006    0.7151 C.ar      1 <0>        -0.1249
      9 C8         -1.1214   -2.5295   -0.2620 C.3       1 <0>         0.1184
     10 O2         -0.6222   -3.8560   -0.0796 O.3       1 <0>        -0.3820
     11 C9         -1.1990   -4.8206   -0.9621 C.3       1 <0>         0.0695
     12 C10        -0.5940   -6.1971   -0.6789 C.3       1 <0>        -0.1187
     13 C11        -1.2116   -7.2298   -1.6238 C.3       1 <0>         0.0672
     14 O3         -0.6465   -8.5154   -1.3593 O.3       1 <0>        -0.2994
     15 C12        -1.0905   -9.5528   -2.1179 C.ar      1 <0>         0.1614
     16 C13        -2.0459   -9.3347   -3.0997 C.ar      1 <0>        -0.2057
     17 C14        -2.4973  -10.3878   -3.8704 C.ar      1 <0>        -0.0527
     18 C15        -1.9946  -11.6652   -3.6626 C.ar      1 <0>         0.0870
     19 C16        -1.0382  -11.8829   -2.6798 C.ar      1 <0>        -0.0408
     20 C17        -0.5836  -10.8279   -1.9136 C.ar      1 <0>        -0.1402
     21 N1         -2.4524  -12.7343   -4.4440 N.am      1 <0>        -0.5503
     22 C18        -3.2390  -13.7852   -3.8030 C.3       1 <0>         0.1190
     23 H1         -2.5747  -14.4462   -3.2464 H         1 <0>         0.1167
     24 C19        -3.9893  -14.5939   -4.8631 C.3       1 <0>        -0.0168
     25 N2         -3.0351  -15.0167   -5.9000 N.4       1 <0>        -0.5031
     26 C20        -2.6200  -13.8393   -6.6727 C.3       1 <0>        -0.0141
     27 C21        -2.1565  -12.7494   -5.7486 C.2       1 <0>         0.4917
     28 O4         -1.4829  -11.8488   -6.2030 O.2       1 <0>        -0.4699
     29 C22        -4.2470  -13.1512   -2.8423 C.3       1 <0>         0.0525
     30 O5         -3.5483  -12.5156   -1.7700 O.3       1 <0>        -0.3606
     31 C23        -4.4029  -11.9346   -0.7831 C.3       1 <0>         0.1126
     32 C24        -3.5674  -11.3872    0.3454 C.ar      1 <0>        -0.1514
     33 C25        -3.1286  -12.2212    1.3626 C.ar      1 <0>        -0.0525
     34 C26        -2.3625  -11.6739    2.3802 C.ar      1 <0>        -0.1741
     35 C27        -2.0638  -10.3247    2.3473 C.ar      1 <0>         0.1136
     36 N3         -2.4987   -9.5615    1.3641 N.ar      1 <0>        -0.4718
     37 C28        -3.2243  -10.0490    0.3765 C.ar      1 <0>         0.1282
     38 H2         -1.0721    2.1978   -0.2682 H         1 <0>         0.0572
     39 H3         -2.7366    1.8866   -0.8170 H         1 <0>         0.1016
     40 H4         -2.3565    1.8779    0.9219 H         1 <0>         0.0572
     41 H5         -0.4086    1.6493    1.6458 H         1 <0>         0.1304
     42 H6          1.2669    0.7667    3.2178 H         1 <0>         0.1264
     43 H7          1.8466   -1.6254    3.1867 H         1 <0>         0.1260
     44 H8          0.7536   -3.1395    1.5836 H         1 <0>         0.1388
     45 H9         -2.1978   -2.5196   -0.0900 H         1 <0>         0.0636
     46 H10        -0.9130   -2.1996   -1.2797 H         1 <0>         0.0634
     47 H11        -2.2770   -4.8582   -0.8047 H         1 <0>         0.0530
     48 H12        -0.9922   -4.5382   -1.9944 H         1 <0>         0.0519
     49 H13         0.4840   -6.1595   -0.8363 H         1 <0>         0.0831
     50 H14        -0.8008   -6.4795    0.3533 H         1 <0>         0.0897
     51 H15        -2.2895   -7.2675   -1.4664 H         1 <0>         0.0651
     52 H16        -1.0048   -6.9474   -2.6561 H         1 <0>         0.0638
     53 H17        -2.4372   -8.3410   -3.2610 H         1 <0>         0.1331
     54 H18        -3.2414  -10.2178   -4.6345 H         1 <0>         0.1185
     55 H19        -0.6471  -12.8764   -2.5174 H         1 <0>         0.1232
     56 H20         0.1635  -10.9962   -1.1520 H         1 <0>         0.1324
     57 H21        -4.4399  -15.4724   -4.4012 H         1 <0>         0.1626
     58 H22        -4.7665  -13.9755   -5.3121 H         1 <0>         0.1467
     59 H23        -2.2277  -15.4373   -5.4650 H         1 <0>         0.4376
     60 H24        -1.8079  -14.1163   -7.3450 H         1 <0>         0.1724
     61 H25        -3.4639  -13.4762   -7.2593 H         1 <0>         0.1668
     62 H26        -4.8427  -12.4113   -3.3770 H         1 <0>         0.0677
     63 H27        -4.9025  -13.9243   -2.4412 H         1 <0>         0.0781
     64 H28        -4.9804  -11.1268   -1.2326 H         1 <0>         0.0632
     65 H29        -5.0816  -12.6951   -0.3969 H         1 <0>         0.0645
     66 H30        -3.3779  -13.2720    1.3623 H         1 <0>         0.1320
     67 H31        -2.0040  -12.2938    3.1887 H         1 <0>         0.1379
     68 H32        -1.4675   -9.8907    3.1363 H         1 <0>         0.1587
     69 H33        -3.5581   -9.3938   -0.4145 H         1 <0>         0.1435
     70 H34        -3.4769  -15.6850   -6.5135 H         1 <0>         0.4449
@<TRIPOS>BOND
     1    1    2 1
     2    1   38 1
     3    1   39 1
     4    1   40 1
     5    2    3 1
     6    3    8 ar
     7    3    4 ar
     8    4    5 ar
     9    4   41 1
    10    5    6 ar
    11    5   42 1
    12    6    7 ar
    13    6   43 1
    14    7    8 ar
    15    7   44 1
    16    8    9 1
    17    9   10 1
    18    9   45 1
    19    9   46 1
    20   10   11 1
    21   11   12 1
    22   11   47 1
    23   11   48 1
    24   12   13 1
    25   12   49 1
    26   12   50 1
    27   13   14 1
    28   13   51 1
    29   13   52 1
    30   14   15 1
    31   15   20 ar
    32   15   16 ar
    33   16   17 ar
    34   16   53 1
    35   17   18 ar
    36   17   54 1
    37   18   19 ar
    38   18   21 1
    39   19   20 ar
    40   19   55 1
    41   20   56 1
    42   21   27 am
    43   21   22 1
    44   22   23 1
    45   22   24 1
    46   22   29 1
    47   24   25 1
    48   24   57 1
    49   24   58 1
    50   25   26 1
    51   25   59 1
    52   25   70 1
    53   26   27 1
    54   26   60 1
    55   26   61 1
    56   27   28 2
    57   29   30 1
    58   29   62 1
    59   29   63 1
    60   30   31 1
    61   31   32 1
    62   31   64 1
    63   31   65 1
    64   32   37 ar
    65   32   33 ar
    66   33   34 ar
    67   33   66 1
    68   34   35 ar
    69   34   67 1
    70   35   36 ar
    71   35   68 1
    72   36   37 ar
    73   37   69 1
@<TRIPOS>MOLECULE
CHEMBL365330
   73    76     0     0     0
SMALL
USER_CHARGES

@<TRIPOS>ATOM
      1 C1          1.1686    1.7128   -1.5530 C.3       1 <0>         0.0269
      2 O1          1.0948    0.3072   -1.3066 O.3       1 <0>        -0.3182
      3 C2         -0.1166   -0.1937   -0.9482 C.ar      1 <0>         0.1305
      4 C3         -1.2133    0.6497   -0.8415 C.ar      1 <0>        -0.2076
      5 C4         -2.4435    0.1381   -0.4774 C.ar      1 <0>        -0.0798
      6 C5         -2.5829   -1.2133   -0.2194 C.ar      1 <0>        -0.1573
      7 C6         -1.4917   -2.0556   -0.3246 C.ar      1 <0>        -0.0590
      8 C7         -0.2601   -1.5497   -0.6939 C.ar      1 <0>        -0.1234
      9 C8          0.9276   -2.4694   -0.8145 C.3       1 <0>         0.1172
     10 O2          0.5282   -3.8062   -0.5051 O.3       1 <0>        -0.3833
     11 C9          1.5861   -4.7632   -0.5899 C.3       1 <0>         0.0685
     12 C10         1.0469   -6.1516   -0.2402 C.3       1 <0>        -0.1193
     13 C11         2.1795   -7.1763   -0.3310 C.3       1 <0>         0.0634
     14 O3          1.6759   -8.4731   -0.0044 O.3       1 <0>        -0.3107
     15 C12         2.5606   -9.5052   -0.0375 C.ar      1 <0>         0.1347
     16 C13         3.8864   -9.2714   -0.3720 C.ar      1 <0>        -0.2011
     17 C14         4.7853  -10.3190   -0.4058 C.ar      1 <0>        -0.0518
     18 C15         4.3619  -11.6067   -0.1049 C.ar      1 <0>         0.1019
     19 C16         3.0348  -11.8400    0.2299 C.ar      1 <0>        -0.0821
     20 C17         2.1381  -10.7905    0.2688 C.ar      1 <0>        -0.1419
     21 N1          5.2734  -12.6702   -0.1394 N.am      1 <0>        -0.5524
     22 C18         5.1199  -13.6870   -1.1760 C.3       1 <0>         0.1107
     23 H1          4.3139  -14.3666   -0.8993 H         1 <0>         0.0930
     24 C19         6.4201  -14.4781   -1.3310 C.3       1 <0>         0.0467
     25 N2          6.8591  -14.9312   -0.0012 N.3       1 <0>        -0.6741
     26 C20         7.2941  -13.7842    0.8068 C.3       1 <0>         0.0475
     27 C21         6.2483  -12.7059    0.7751 C.2       1 <0>         0.4857
     28 O4          6.2873  -11.8339    1.6172 O.2       1 <0>        -0.5307
     29 C22         4.7791  -13.0097   -2.5049 C.3       1 <0>         0.0523
     30 O5          5.8747  -12.1897   -2.9164 O.3       1 <0>        -0.3704
     31 C23         5.6580  -11.5081   -4.1535 C.3       1 <0>         0.1037
     32 C24         6.8702  -10.6778   -4.4886 C.ar      1 <0>        -0.0869
     33 C25         6.9575   -9.3715   -4.0440 C.ar      1 <0>        -0.0524
     34 C26         8.0686   -8.6096   -4.3514 C.ar      1 <0>        -0.1122
     35 C27         9.0942   -9.1543   -5.1039 C.ar      1 <0>         0.0137
     36 C28         9.0065  -10.4614   -5.5480 C.ar      1 <0>        -0.1798
     37 C29         7.8968  -11.2243   -5.2355 C.ar      1 <0>        -0.0385
     38 C30        10.1229  -11.0554   -6.3676 C.3       1 <0>         0.5099
     39 F1          9.8075  -12.3782   -6.6960 F         1 <0>        -0.1736
     40 F2         10.2879  -10.3105   -7.5403 F         1 <0>        -0.1690
     41 F3         11.3098  -11.0290   -5.6275 F         1 <0>        -0.1683
     42 Cl1        10.4901   -8.1975   -5.4909 Cl        1 <0>        -0.0382
     43 H2          2.1884    1.9802   -1.8296 H         1 <0>         0.1015
     44 H3          0.4911    1.9753   -2.3655 H         1 <0>         0.0566
     45 H4          0.8825    2.2552   -0.6518 H         1 <0>         0.0567
     46 H5         -1.1049    1.7052   -1.0425 H         1 <0>         0.1299
     47 H6         -3.2974    0.7942   -0.3939 H         1 <0>         0.1257
     48 H7         -3.5457   -1.6113    0.0651 H         1 <0>         0.1258
     49 H8         -1.6030   -3.1106   -0.1222 H         1 <0>         0.1394
     50 H9          1.3140   -2.4322   -1.8330 H         1 <0>         0.0640
     51 H10         1.7048   -2.1523   -0.1191 H         1 <0>         0.0641
     52 H11         1.9862   -4.7735   -1.6037 H         1 <0>         0.0537
     53 H12         2.3769   -4.4936    0.1101 H         1 <0>         0.0543
     54 H13         0.6468   -6.1413    0.7737 H         1 <0>         0.0848
     55 H14         0.2561   -6.4212   -0.9402 H         1 <0>         0.0844
     56 H15         2.5796   -7.1867   -1.3449 H         1 <0>         0.0649
     57 H16         2.9703   -6.9067    0.3690 H         1 <0>         0.0661
     58 H17         4.2155   -8.2698   -0.6064 H         1 <0>         0.1305
     59 H18         5.8174  -10.1369   -0.6666 H         1 <0>         0.1246
     60 H19         2.7047  -12.8414    0.4637 H         1 <0>         0.1294
     61 H20         1.1067  -10.9711    0.5335 H         1 <0>         0.1360
     62 H21         6.2480  -15.3419   -1.9732 H         1 <0>         0.1017
     63 H22         7.1862  -13.8396   -1.7710 H         1 <0>         0.0984
     64 H23         6.1270  -15.4454    0.4655 H         1 <0>         0.3487
     65 H24         7.4542  -14.1063    1.8357 H         1 <0>         0.1152
     66 H25         8.2270  -13.3904    0.4033 H         1 <0>         0.1132
     67 H26         4.5899  -13.7703   -3.2623 H         1 <0>         0.0703
     68 H27         3.8897  -12.3919   -2.3802 H         1 <0>         0.0625
     69 H28         5.4871  -12.2376   -4.9452 H         1 <0>         0.0668
     70 H29         4.7869  -10.8592   -4.0631 H         1 <0>         0.0657
     71 H30         6.1570   -8.9465   -3.4567 H         1 <0>         0.1422
     72 H31         8.1364   -7.5890   -4.0047 H         1 <0>         0.1489
     73 H32         7.8301  -12.2461   -5.5788 H         1 <0>         0.1498
@<TRIPOS>BOND
     1    1    2 1
     2    1   43 1
     3    1   44 1
     4    1   45 1
     5    2    3 1
     6    3    8 ar
     7    3    4 ar
     8    4    5 ar
     9    4   46 1
    10    5    6 ar
    11    5   47 1
    12    6    7 ar
    13    6   48 1
    14    7    8 ar
    15    7   49 1
    16    8    9 1
    17    9   10 1
    18    9   50 1
    19    9   51 1
    20   10   11 1
    21   11   12 1
    22   11   52 1
    23   11   53 1
    24   12   13 1
    25   12   54 1
    26   12   55 1
    27   13   14 1
    28   13   56 1
    29   13   57 1
    30   14   15 1
    31   15   20 ar
    32   15   16 ar
    33   16   17 ar
    34   16   58 1
    35   17   18 ar
    36   17   59 1
    37   18   19 ar
    38   18   21 1
    39   19   20 ar
    40   19   60 1
    41   20   61 1
    42   21   27 am
    43   21   22 1
    44   22   23 1
    45   22   24 1
    46   22   29 1
    47   24   25 1
    48   24   62 1
    49   24   63 1
    50   25   26 1
    51   25   64 1
    52   26   27 1
    53   26   65 1
    54   26   66 1
    55   27   28 2
    56   29   30 1
    57   29   67 1
    58   29   68 1
    59   30   31 1
    60   31   32 1
    61   31   69 1
    62   31   70 1
    63   32   37 ar
    64   32   33 ar
    65   33   34 ar
    66   33   71 1
    67   34   35 ar
    68   34   72 1
    69   35   36 ar
    70   35   42 1
    71   36   37 ar
    72   36   38 1
    73   37   73 1
    74   38   39 1
    75   38   40 1
    76   38   41 1
@<TRIPOS>MOLECULE
CHEMBL365330__1
   74    77     0     0     0
SMALL
USER_CHARGES

@<TRIPOS>ATOM
      1 C1          0.7551    0.9166   -1.7027 C.3       1 <0>         0.0263
      2 O1          0.7730   -0.5117   -1.6588 O.3       1 <0>        -0.3191
      3 C2          1.6732   -1.0920   -0.8223 C.ar      1 <0>         0.1311
      4 C3          2.5180   -0.3029   -0.0551 C.ar      1 <0>        -0.2067
      5 C4          3.4318   -0.8951    0.7947 C.ar      1 <0>        -0.0779
      6 C5          3.5050   -2.2734    0.8812 C.ar      1 <0>        -0.1572
      7 C6          2.6646   -3.0618    0.1175 C.ar      1 <0>        -0.0597
      8 C7          1.7450   -2.4742   -0.7299 C.ar      1 <0>        -0.1261
      9 C8          0.8250   -3.3342   -1.5575 C.3       1 <0>         0.1187
     10 O2          1.0901   -4.7122   -1.2877 O.3       1 <0>        -0.3825
     11 C9          0.2670   -5.6178   -2.0255 C.3       1 <0>         0.0686
     12 C10         0.6362   -7.0567   -1.6591 C.3       1 <0>        -0.1210
     13 C11        -0.2451   -8.0263   -2.4491 C.3       1 <0>         0.0623
     14 O3          0.0997   -9.3702   -2.1069 O.3       1 <0>        -0.3056
     15 C12        -0.5949  -10.3622   -2.7251 C.ar      1 <0>         0.1551
     16 C13        -1.5833  -10.0466   -3.6458 C.ar      1 <0>        -0.2020
     17 C14        -2.2890  -11.0536   -4.2741 C.ar      1 <0>        -0.0427
     18 C15        -2.0092  -12.3822   -3.9840 C.ar      1 <0>         0.0705
     19 C16        -1.0198  -12.6974   -3.0623 C.ar      1 <0>        -0.0720
     20 C17        -0.3109  -11.6896   -2.4390 C.ar      1 <0>        -0.1418
     21 N1         -2.7252  -13.4045   -4.6207 N.am      1 <0>        -0.5474
     22 C18        -3.6367  -14.2230   -3.8250 C.3       1 <0>         0.1253
     23 H1         -3.0627  -14.9507   -3.2513 H         1 <0>         0.1220
     24 C19        -4.6141  -14.9578   -4.7446 C.3       1 <0>        -0.0195
     25 N2         -3.8493  -15.6457   -5.7964 N.4       1 <0>        -0.5050
     26 C20        -3.2890  -14.6425   -6.7102 C.3       1 <0>        -0.0131
     27 C21        -2.5511  -13.5887   -5.9343 C.2       1 <0>         0.4987
     28 O4         -1.7623  -12.8790   -6.5219 O.2       1 <0>        -0.4721
     29 C22        -4.4211  -13.3248   -2.8665 C.3       1 <0>         0.0475
     30 O5         -5.2466  -12.4325   -3.6178 O.3       1 <0>        -0.3816
     31 C23        -6.0844  -11.5997   -2.8137 C.3       1 <0>         0.1082
     32 C24        -6.9215  -10.7191   -3.7053 C.ar      1 <0>        -0.0972
     33 C25        -6.4480   -9.4796   -4.0937 C.ar      1 <0>        -0.0512
     34 C26        -7.2154   -8.6715   -4.9109 C.ar      1 <0>        -0.1105
     35 C27        -8.4578   -9.1033   -5.3408 C.ar      1 <0>         0.0165
     36 C28        -8.9308  -10.3438   -4.9521 C.ar      1 <0>        -0.1789
     37 C29        -8.1600  -11.1534   -4.1389 C.ar      1 <0>        -0.0410
     38 C30       -10.2838  -10.8148   -5.4198 C.3       1 <0>         0.5089
     39 F1        -10.5394  -12.0883   -4.9002 F         1 <0>        -0.1751
     40 F2        -11.2669   -9.9240   -4.9757 F         1 <0>        -0.1651
     41 F3        -10.3011  -10.8693   -6.8176 F         1 <0>        -0.1682
     42 Cl1        -9.4227   -8.0885   -6.3669 Cl        1 <0>        -0.0285
     43 H2          1.7307    1.2824   -2.0229 H         1 <0>         0.0575
     44 H3         -0.0068    1.2489   -2.4078 H         1 <0>         0.1019
     45 H4          0.5279    1.3077   -0.7110 H         1 <0>         0.0575
     46 H5          2.4615    0.7735   -0.1225 H         1 <0>         0.1309
     47 H6          4.0898   -0.2813    1.3919 H         1 <0>         0.1269
     48 H7          4.2201   -2.7346    1.5463 H         1 <0>         0.1263
     49 H8          2.7240   -4.1380    0.1865 H         1 <0>         0.1383
     50 H9         -0.2105   -3.1070   -1.3040 H         1 <0>         0.0640
     51 H10         0.9927   -3.1323   -2.6154 H         1 <0>         0.0642
     52 H11        -0.7801   -5.4380   -1.7817 H         1 <0>         0.0535
     53 H12         0.4232   -5.4633   -3.0931 H         1 <0>         0.0540
     54 H13         1.6833   -7.2364   -1.9029 H         1 <0>         0.0866
     55 H14         0.4800   -7.2112   -0.5915 H         1 <0>         0.0862
     56 H15        -1.2922   -7.8465   -2.2053 H         1 <0>         0.0680
     57 H16        -0.0889   -7.8717   -3.5167 H         1 <0>         0.0690
     58 H17        -1.8011   -9.0130   -3.8711 H         1 <0>         0.1367
     59 H18        -3.0588  -10.8077   -4.9906 H         1 <0>         0.1274
     60 H19        -0.8019  -13.7307   -2.8359 H         1 <0>         0.1320
     61 H20         0.4618  -11.9347   -1.7253 H         1 <0>         0.1424
     62 H21        -5.1800  -15.6886   -4.1670 H         1 <0>         0.1596
     63 H22        -5.2972  -14.2405   -5.1994 H         1 <0>         0.1541
     64 H23        -3.1007  -16.1768   -5.3774 H         1 <0>         0.4352
     65 H24        -2.6044  -15.1289   -7.4050 H         1 <0>         0.1713
     66 H25        -4.0972  -14.1733   -7.2713 H         1 <0>         0.1665
     67 H26        -5.0464  -13.9412   -2.2206 H         1 <0>         0.0833
     68 H27        -3.7251  -12.7491   -2.2564 H         1 <0>         0.0841
     69 H28        -6.7370  -12.2230   -2.2024 H         1 <0>         0.0721
     70 H29        -5.4653  -10.9780   -2.1669 H         1 <0>         0.0727
     71 H30        -5.4783   -9.1426   -3.7582 H         1 <0>         0.1433
     72 H31        -6.8457   -7.7030   -5.2137 H         1 <0>         0.1516
     73 H32        -8.5275  -12.1236   -3.8387 H         1 <0>         0.1484
     74 H33        -4.4600  -16.2651   -6.3079 H         1 <0>         0.4438
@<TRIPOS>BOND
     1    1    2 1
     2    1   43 1
     3    1   44 1
     4    1   45 1
     5    2    3 1
     6    3    8 ar
     7    3    4 ar
     8    4    5 ar
     9    4   46 1
    10    5    6 ar
    11    5   47 1
    12    6    7 ar
    13    6   48 1
    14    7    8 ar
    15    7   49 1
    16    8    9 1
    17    9   10 1
    18    9   50 1
    19    9   51 1
    20   10   11 1
    21   11   12 1
    22   11   52 1
    23   11   53 1
    24   12   13 1
    25   12   54 1
    26   12   55 1
    27   13   14 1
    28   13   56 1
    29   13   57 1
    30   14   15 1
    31   15   20 ar
    32   15   16 ar
    33   16   17 ar
    34   16   58 1
    35   17   18 ar
    36   17   59 1
    37   18   19 ar
    38   18   21 1
    39   19   20 ar
    40   19   60 1
    41   20   61 1
    42   21   27 am
    43   21   22 1
    44   22   23 1
    45   22   24 1
    46   22   29 1
    47   24   25 1
    48   24   62 1
    49   24   63 1
    50   25   26 1
    51   25   64 1
    52   25   74 1
    53   26   27 1
    54   26   65 1
    55   26   66 1
    56   27   28 2
    57   29   30 1
    58   29   67 1
    59   29   68 1
    60   30   31 1
    61   31   32 1
    62   31   69 1
    63   31   70 1
    64   32   37 ar
    65   32   33 ar
    66   33   34 ar
    67   33   71 1
    68   34   35 ar
    69   34   72 1
    70   35   36 ar
    71   35   42 1
    72   36   37 ar
    73   36   38 1
    74   37   73 1
    75   38   39 1
    76   38   40 1
    77   38   41 1
@<TRIPOS>MOLECULE
CHEMBL430959
   95    97     0     0     0
SMALL
USER_CHARGES

@<TRIPOS>ATOM
      1 C1         -3.3256    1.4887    0.4480 C.3       1 <0>        -0.1507
      2 C2         -2.5265    0.1844    0.4138 C.3       1 <0>        -0.1213
      3 C3         -3.4818   -0.9939    0.2137 C.3       1 <0>        -0.1189
      4 C4         -2.6827   -2.2982    0.1795 C.3       1 <0>        -0.1076
      5 C5         -3.6449   -3.4832    0.0753 C.3       1 <0>         0.0729
      6 H1         -4.2841   -3.3564   -0.7984 H         1 <0>         0.0798
      7 C6         -2.8562   -4.7602   -0.0604 C.2       1 <0>         0.4956
      8 O1         -2.9150   -5.6044    0.8084 O.2       1 <0>        -0.5018
      9 N1         -2.0856   -4.9641   -1.1472 N.am      1 <0>        -0.7244
     10 C7         -1.4109   -6.2507   -1.3358 C.3       1 <0>         0.1135
     11 H2         -1.2810   -6.7380   -0.3694 H         1 <0>         0.1160
     12 C8         -2.2577   -7.1419   -2.2466 C.3       1 <0>        -0.1223
     13 C9         -3.5728   -7.4857   -1.5443 C.3       1 <0>        -0.0770
     14 C10        -3.2818   -8.3289   -0.3012 C.3       1 <0>        -0.1169
     15 C11        -4.5969   -8.6727    0.4011 C.3       1 <0>        -0.1123
     16 C12        -5.4932   -9.4640   -0.5536 C.3       1 <0>        -0.1214
     17 C13        -5.7842   -8.6208   -1.7967 C.3       1 <0>        -0.1167
     18 C14        -4.4691   -8.2770   -2.4990 C.3       1 <0>        -0.1153
     19 C15        -0.0418   -6.0193   -1.9784 C.3       1 <0>         0.0669
     20 H3          0.4602   -6.9765   -2.1187 H         1 <0>         0.1110
     21 C16         0.8049   -5.1280   -1.0675 C.3       1 <0>         0.0780
     22 H4          0.3029   -4.1707   -0.9272 H         1 <0>         0.1008
     23 C17         2.1740   -4.8966   -1.7101 C.3       1 <0>        -0.1444
     24 C18         2.9857   -3.9290   -0.8465 C.3       1 <0>        -0.0943
     25 C19         4.4052   -3.8140   -1.4059 C.3       1 <0>        -0.1487
     26 C20         2.3193   -2.5518   -0.8596 C.3       1 <0>        -0.1487
     27 O2          0.9752   -5.7668    0.1993 O.3       1 <0>        -0.5462
     28 O3         -0.2121   -5.3805   -3.2452 O.3       1 <0>        -0.5445
     29 O4         -4.4532   -3.5453    1.2520 O.3       1 <0>        -0.3048
     30 C21        -5.7609   -4.0777    1.0314 C.3       1 <0>         0.0848
     31 H5         -5.7478   -4.7205    0.1513 H         1 <0>         0.0812
     32 C22        -6.1922   -4.8931    2.2521 C.3       1 <0>        -0.0759
     33 C23        -6.2495   -3.9953    3.4612 C.ar      1 <0>        -0.0800
     34 C24        -5.1471   -3.8765    4.2866 C.ar      1 <0>        -0.0890
     35 C25        -5.1996   -3.0530    5.3957 C.ar      1 <0>        -0.1199
     36 C26        -6.3545   -2.3480    5.6790 C.ar      1 <0>        -0.1184
     37 C27        -7.4566   -2.4662    4.8530 C.ar      1 <0>        -0.1193
     38 C28        -7.4026   -3.2864    3.7416 C.ar      1 <0>        -0.1121
     39 C29        -6.7333   -2.9472    0.8134 C.2       1 <0>         0.4983
     40 O5         -6.3999   -1.8059    1.0526 O.2       1 <0>        -0.5021
     41 N2         -7.9734   -3.2044    0.3525 N.am      1 <0>        -0.6171
     42 C30        -8.3719   -4.5687   -0.0288 C.3       1 <0>         0.0650
     43 C31        -9.6951   -4.8993    0.6712 C.3       1 <0>         0.0456
     44 O6        -10.6419   -3.8626    0.4019 O.3       1 <0>        -0.3748
     45 C32       -10.2630   -2.5789    0.9043 C.3       1 <0>         0.0465
     46 C33        -8.9708   -2.1304    0.2216 C.3       1 <0>         0.0782
     47 H6         -2.6450    2.3281    0.5905 H         1 <0>         0.0514
     48 H7         -3.8615    1.6112   -0.4933 H         1 <0>         0.0512
     49 H8         -4.0395    1.4559    1.2710 H         1 <0>         0.0554
     50 H9         -1.8125    0.2171   -0.4092 H         1 <0>         0.0558
     51 H10        -1.9906    0.0618    1.3550 H         1 <0>         0.0601
     52 H11        -4.1957   -1.0266    1.0367 H         1 <0>         0.0917
     53 H12        -4.0177   -0.8714   -0.7275 H         1 <0>         0.0549
     54 H13        -2.0168   -2.2939   -0.6834 H         1 <0>         0.0727
     55 H14        -2.0938   -2.3875    1.0924 H         1 <0>         0.0794
     56 H15        -1.9777   -4.2589   -1.8044 H         1 <0>         0.3910
     57 H16        -2.4695   -6.6141   -3.1764 H         1 <0>         0.0694
     58 H17        -1.7122   -8.0598   -2.4660 H         1 <0>         0.0717
     59 H18        -4.0784   -6.5662   -1.2494 H         1 <0>         0.0618
     60 H19        -2.7762   -9.2485   -0.5961 H         1 <0>         0.0525
     61 H20        -2.6433   -7.7652    0.3789 H         1 <0>         0.0812
     62 H21        -4.3896   -9.2735    1.2867 H         1 <0>         0.0578
     63 H22        -5.1025   -7.7532    0.6960 H         1 <0>         0.0581
     64 H23        -4.9876  -10.3835   -0.8484 H         1 <0>         0.0595
     65 H24        -6.4301   -9.7090   -0.0532 H         1 <0>         0.0583
     66 H25        -6.4227   -9.1845   -2.4768 H         1 <0>         0.0595
     67 H26        -6.2898   -7.7013   -1.5018 H         1 <0>         0.0558
     68 H27        -4.6764   -7.6763   -3.3846 H         1 <0>         0.0570
     69 H28        -3.9635   -9.1965   -2.7938 H         1 <0>         0.0611
     70 H29         2.7039   -5.8459   -1.7882 H         1 <0>         0.0651
     71 H30         2.0413   -4.4717   -2.7051 H         1 <0>         0.0788
     72 H31         3.0276   -4.3027    0.1766 H         1 <0>         0.0760
     73 H32         4.3699   -3.3588   -2.3957 H         1 <0>         0.0535
     74 H33         5.0081   -3.1943   -0.7422 H         1 <0>         0.0547
     75 H34         4.8487   -4.8071   -1.4783 H         1 <0>         0.0532
     76 H35         1.3081   -2.6337   -0.4610 H         1 <0>         0.0536
     77 H36         2.8976   -1.8625   -0.2443 H         1 <0>         0.0548
     78 H37         2.2775   -2.1781   -1.8826 H         1 <0>         0.0530
     79 H38         1.4164   -6.6259    0.1505 H         1 <0>         0.3736
     80 H39        -0.6533   -4.5214   -3.1964 H         1 <0>         0.3691
     81 H40        -7.1774   -5.3233    2.0720 H         1 <0>         0.0856
     82 H41        -5.4729   -5.6930    2.4273 H         1 <0>         0.0999
     83 H42        -4.2448   -4.4273    4.0653 H         1 <0>         0.1239
     84 H43        -4.3386   -2.9607    6.0410 H         1 <0>         0.1198
     85 H44        -6.3958   -1.7052    6.5459 H         1 <0>         0.1186
     86 H45        -8.3589   -1.9157    5.0746 H         1 <0>         0.1169
     87 H46        -8.2624   -3.3758    3.0942 H         1 <0>         0.1087
     88 H47        -8.5044   -4.6239   -1.1093 H         1 <0>         0.0817
     89 H48        -7.6042   -5.2764    0.2841 H         1 <0>         0.0938
     90 H49       -10.0780   -5.8485    0.2963 H         1 <0>         0.1093
     91 H50        -9.5301   -4.9714    1.7462 H         1 <0>         0.0581
     92 H51       -11.0546   -1.8587    0.6972 H         1 <0>         0.1089
     93 H52       -10.1002   -2.6426    1.9802 H         1 <0>         0.0563
     94 H53        -8.5994   -1.2243    0.7002 H         1 <0>         0.1025
     95 H54        -9.1646   -1.9360   -0.8333 H         1 <0>         0.0759
@<TRIPOS>BOND
     1    1    2 1
     2    1   47 1
     3    1   48 1
     4    1   49 1
     5    2    3 1
     6    2   50 1
     7    2   51 1
     8    3    4 1
     9    3   52 1
    10    3   53 1
    11    4    5 1
    12    4   54 1
    13    4   55 1
    14    5    6 1
    15    5    7 1
    16    5   29 1
    17    7    8 2
    18    7    9 am
    19    9   10 1
    20    9   56 1
    21   10   11 1
    22   10   12 1
    23   10   19 1
    24   12   13 1
    25   12   57 1
    26   12   58 1
    27   13   18 1
    28   13   14 1
    29   13   59 1
    30   14   15 1
    31   14   60 1
    32   14   61 1
    33   15   16 1
    34   15   62 1
    35   15   63 1
    36   16   17 1
    37   16   64 1
    38   16   65 1
    39   17   18 1
    40   17   66 1
    41   17   67 1
    42   18   68 1
    43   18   69 1
    44   19   20 1
    45   19   21 1
    46   19   28 1
    47   21   22 1
    48   21   23 1
    49   21   27 1
    50   23   24 1
    51   23   70 1
    52   23   71 1
    53   24   25 1
    54   24   26 1
    55   24   72 1
    56   25   73 1
    57   25   74 1
    58   25   75 1
    59   26   76 1
    60   26   77 1
    61   26   78 1
    62   27   79 1
    63   28   80 1
    64   29   30 1
    65   30   31 1
    66   30   32 1
    67   30   39 1
    68   32   33 1
    69   32   81 1
    70   32   82 1
    71   33   38 ar
    72   33   34 ar
    73   34   35 ar
    74   34   83 1
    75   35   36 ar
    76   35   84 1
    77   36   37 ar
    78   36   85 1
    79   37   38 ar
    80   37   86 1
    81   38   87 1
    82   39   40 2
    83   39   41 am
    84   41   46 1
    85   41   42 1
    86   42   43 1
    87   42   88 1
    88   42   89 1
    89   43   44 1
    90   43   90 1
    91   43   91 1
    92   44   45 1
    93   45   46 1
    94   45   92 1
    95   45   93 1
    96   46   94 1
    97   46   95 1
@<TRIPOS>MOLECULE
CHEMBL353306
   87    90     0     0     0
SMALL
USER_CHARGES

@<TRIPOS>ATOM
      1 C1         -2.0060    1.5229    1.4193 C.3       1 <0>        -0.1460
      2 C2         -2.1718    0.3424    0.4602 C.3       1 <0>        -0.0933
      3 C3         -3.6419    0.2170    0.0552 C.3       1 <0>        -0.1859
      4 C4         -1.3171    0.5749   -0.7873 C.3       1 <0>        -0.1223
      5 C5         -1.2884   -0.7012   -1.6309 C.3       1 <0>         0.1323
      6 C6         -2.6689   -0.9801   -2.1671 C.2       1 <0>         0.5174
      7 O1         -3.2801   -1.9573   -1.7896 O.2       1 <0>        -0.5131
      8 N1         -3.2244   -0.1436   -3.0661 N.am      1 <0>        -0.7210
      9 C7         -4.6075   -0.3507   -3.5023 C.3       1 <0>         0.1193
     10 H1         -5.1752   -0.8208   -2.6993 H         1 <0>         0.1120
     11 C8         -5.2394    0.9982   -3.8518 C.3       1 <0>        -0.1377
     12 C9         -5.3026    1.8720   -2.5975 C.3       1 <0>        -0.0842
     13 C10        -6.2580    1.2400   -1.5832 C.3       1 <0>        -0.1187
     14 C11        -6.3212    2.1138   -0.3289 C.3       1 <0>        -0.1216
     15 C12        -6.8254    3.5088   -0.7040 C.3       1 <0>        -0.1205
     16 C13        -5.8701    4.1408   -1.7182 C.3       1 <0>        -0.1193
     17 C14        -5.8069    3.2669   -2.9726 C.3       1 <0>        -0.1129
     18 C15        -4.6232   -1.2560   -4.7356 C.3       1 <0>         0.1056
     19 C16        -6.0460   -1.4691   -5.1844 C.2       1 <0>         0.4648
     20 O2         -6.5362   -2.5723   -5.1353 O.2       1 <0>        -0.4723
     21 O3         -6.7687   -0.4331   -5.6385 O.3       1 <0>        -0.3472
     22 C17        -8.1103   -0.7076   -6.0471 C.3       1 <0>         0.0304
     23 O4         -4.0330   -2.5159   -4.4093 O.3       1 <0>        -0.5256
     24 N2         -0.8506   -1.8258   -0.8004 N.am      1 <0>        -0.7104
     25 C18         0.4644   -2.0506   -0.6092 C.2       1 <0>         0.5081
     26 O5          1.2830   -1.2710   -1.0486 O.2       1 <0>        -0.5063
     27 C19         0.9177   -3.2705    0.1507 C.3       1 <0>         0.1650
     28 H2          0.4625   -4.1599   -0.2851 H         1 <0>         0.1231
     29 C20         0.4933   -3.1459    1.6153 C.3       1 <0>        -0.0933
     30 C21         0.8371   -4.4172    2.3479 C.ar      1 <0>        -0.0835
     31 C22        -0.0787   -5.4510    2.4055 C.ar      1 <0>        -0.1145
     32 C23         0.2367   -6.6171    3.0774 C.ar      1 <0>        -0.1169
     33 C24         1.4681   -6.7497    3.6913 C.ar      1 <0>        -0.1180
     34 C25         2.3843   -5.7162    3.6330 C.ar      1 <0>        -0.1175
     35 C26         2.0706   -4.5517    2.9574 C.ar      1 <0>        -0.1047
     36 N3          2.3765   -3.3803    0.0726 N.am      1 <0>        -0.5975
     37 C27         3.1186   -4.4906   -0.5349 C.3       1 <0>         0.1567
     38 C28         4.5828   -4.1589   -0.3764 C.ar      1 <0>         0.1422
     39 C29         4.6353   -2.9296    0.2845 C.ar      1 <0>        -0.2090
     40 C30         5.8843   -2.3692    0.5698 C.ar      1 <0>        -0.0025
     41 C31         7.0171   -3.0641    0.1812 C.ar      1 <0>        -0.1786
     42 C32         6.8792   -4.2767   -0.4695 C.ar      1 <0>         0.1336
     43 N4          5.6862   -4.7813   -0.7259 N.ar      1 <0>        -0.4707
     44 C33         3.2560   -2.4776    0.5407 C.2       1 <0>         0.5763
     45 O6          2.9567   -1.4392    1.0972 O.2       1 <0>        -0.5007
     46 H3         -2.6148    1.3573    2.3081 H         1 <0>         0.0547
     47 H4         -0.9587    1.6123    1.7079 H         1 <0>         0.0544
     48 H5         -2.3263    2.4402    0.9253 H         1 <0>         0.0532
     49 H6         -1.8515   -0.5749    0.9543 H         1 <0>         0.0708
     50 H7         -4.2732    0.3451    0.9345 H         1 <0>         0.0543
     51 H8         -3.8829    0.9846   -0.6801 H         1 <0>         0.0658
     52 H9         -3.8168   -0.7682   -0.3772 H         1 <0>         0.0777
     53 H10        -1.7440    1.3886   -1.3737 H         1 <0>         0.0759
     54 H11        -0.3019    0.8360   -0.4887 H         1 <0>         0.0857
     55 H12        -0.5951   -0.5718   -2.4620 H         1 <0>         0.1121
     56 H13        -2.7083    0.5955   -3.4244 H         1 <0>         0.4073
     57 H14        -4.6366    1.4959   -4.6114 H         1 <0>         0.0771
     58 H15        -6.2474    0.8388   -4.2348 H         1 <0>         0.1035
     59 H16        -4.3077    1.9510   -2.1592 H         1 <0>         0.0750
     60 H17        -7.2529    1.1610   -2.0215 H         1 <0>         0.0611
     61 H18        -5.8987    0.2462   -1.3160 H         1 <0>         0.0639
     62 H19        -7.0018    1.6636    0.3937 H         1 <0>         0.0594
     63 H20        -5.3263    2.1928    0.1094 H         1 <0>         0.0658
     64 H21        -7.8203    3.4298   -1.1423 H         1 <0>         0.0602
     65 H22        -6.8705    4.1313    0.1896 H         1 <0>         0.0593
     66 H23        -6.2293    5.1346   -1.9855 H         1 <0>         0.0608
     67 H24        -4.8752    4.2198   -1.2800 H         1 <0>         0.0602
     68 H25        -5.1263    3.7172   -3.6951 H         1 <0>         0.0619
     69 H26        -6.8018    3.1879   -3.4108 H         1 <0>         0.0633
     70 H27        -4.0555   -0.7860   -5.5387 H         1 <0>         0.0961
     71 H28        -8.6720   -1.1092   -5.2037 H         1 <0>         0.0632
     72 H29        -8.5808    0.2133   -6.3915 H         1 <0>         0.1067
     73 H30        -8.1014   -1.4363   -6.8577 H         1 <0>         0.0630
     74 H31        -3.1149   -2.4548   -4.1118 H         1 <0>         0.3857
     75 H32        -1.5073   -2.4088   -0.3882 H         1 <0>         0.4113
     76 H33         1.0175   -2.3083    2.0755 H         1 <0>         0.0986
     77 H34        -0.5819   -2.9752    1.6688 H         1 <0>         0.0925
     78 H35        -1.0408   -5.3475    1.9258 H         1 <0>         0.1240
     79 H36        -0.4791   -7.4246    3.1230 H         1 <0>         0.1234
     80 H37         1.7143   -7.6605    4.2169 H         1 <0>         0.1217
     81 H38         3.3463   -5.8196    4.1129 H         1 <0>         0.1202
     82 H39         2.7878   -3.7457    2.9086 H         1 <0>         0.1143
     83 H40         2.8877   -5.4222   -0.0184 H         1 <0>         0.1080
     84 H41         2.8663   -4.5755   -1.5919 H         1 <0>         0.1051
     85 H42         5.9632   -1.4201    1.0791 H         1 <0>         0.1444
     86 H43         7.9991   -2.6628    0.3840 H         1 <0>         0.1481
     87 H44         7.7619   -4.8196   -0.7735 H         1 <0>         0.1688
@<TRIPOS>BOND
     1    1    2 1
     2    1   46 1
     3    1   47 1
     4    1   48 1
     5    2    3 1
     6    2    4 1
     7    2   49 1
     8    3   50 1
     9    3   51 1
    10    3   52 1
    11    4    5 1
    12    4   53 1
    13    4   54 1
    14    5    6 1
    15    5   24 1
    16    5   55 1
    17    6    7 2
    18    6    8 am
    19    8    9 1
    20    8   56 1
    21    9   10 1
    22    9   11 1
    23    9   18 1
    24   11   12 1
    25   11   57 1
    26   11   58 1
    27   12   17 1
    28   12   13 1
    29   12   59 1
    30   13   14 1
    31   13   60 1
    32   13   61 1
    33   14   15 1
    34   14   62 1
    35   14   63 1
    36   15   16 1
    37   15   64 1
    38   15   65 1
    39   16   17 1
    40   16   66 1
    41   16   67 1
    42   17   68 1
    43   17   69 1
    44   18   19 1
    45   18   23 1
    46   18   70 1
    47   19   20 2
    48   19   21 1
    49   21   22 1
    50   22   71 1
    51   22   72 1
    52   22   73 1
    53   23   74 1
    54   24   25 am
    55   24   75 1
    56   25   26 2
    57   25   27 1
    58   27   28 1
    59   27   29 1
    60   27   36 1
    61   29   30 1
    62   29   76 1
    63   29   77 1
    64   30   35 ar
    65   30   31 ar
    66   31   32 ar
    67   31   78 1
    68   32   33 ar
    69   32   79 1
    70   33   34 ar
    71   33   80 1
    72   34   35 ar
    73   34   81 1
    74   35   82 1
    75   36   44 am
    76   36   37 1
    77   37   38 1
    78   37   83 1
    79   37   84 1
    80   38   43 ar
    81   38   39 ar
    82   39   40 ar
    83   39   44 1
    84   40   41 ar
    85   40   85 1
    86   41   42 ar
    87   41   86 1
    88   42   43 ar
    89   42   87 1
    90   44   45 2
@<TRIPOS>MOLECULE
CHEMBL353306__1
   87    90     0     0     0
SMALL
USER_CHARGES

@<TRIPOS>ATOM
      1 C1         -1.3238    1.3648    0.1317 C.3       1 <0>        -0.1459
      2 C2         -1.9758    0.2504   -0.6892 C.3       1 <0>        -0.0921
      3 C3         -3.3269    0.7326   -1.2213 C.3       1 <0>        -0.1890
      4 C4         -1.0667   -0.1164   -1.8639 C.3       1 <0>        -0.1228
      5 C5         -1.5799   -1.3970   -2.5254 C.3       1 <0>         0.1358
      6 C6         -2.9181   -1.1305   -3.1651 C.2       1 <0>         0.5414
      7 O1         -3.9218   -1.6294   -2.7018 O.2       1 <0>        -0.5287
      8 N1         -2.9995   -0.3377   -4.2520 N.am      1 <0>        -0.7140
      9 C7         -4.3098    0.0205   -4.8008 C.3       1 <0>         0.1193
     10 H1         -5.0590   -0.0227   -4.0103 H         1 <0>         0.1141
     11 C8         -4.2528    1.4385   -5.3726 C.3       1 <0>        -0.1298
     12 C9         -4.0177    2.4370   -4.2375 C.3       1 <0>        -0.0851
     13 C10        -5.2339    2.4498   -3.3093 C.3       1 <0>        -0.1178
     14 C11        -4.9987    3.4484   -2.1742 C.3       1 <0>        -0.1228
     15 C12        -4.7894    4.8463   -2.7599 C.3       1 <0>        -0.1207
     16 C13        -3.5731    4.8335   -3.6880 C.3       1 <0>        -0.1194
     17 C14        -3.8083    3.8349   -4.8231 C.3       1 <0>        -0.1139
     18 C15        -4.6835   -0.9628   -5.9118 C.3       1 <0>         0.1061
     19 C16        -4.7395   -2.3595   -5.3486 C.2       1 <0>         0.4727
     20 O2         -5.7893   -2.9569   -5.3183 O.2       1 <0>        -0.4810
     21 O3         -3.6233   -2.9398   -4.8807 O.3       1 <0>        -0.3453
     22 C17        -3.7498   -4.2651   -4.3614 C.3       1 <0>         0.0418
     23 O4         -5.9615   -0.6134   -6.4472 O.3       1 <0>        -0.5334
     24 N2         -1.7228   -2.4462   -1.5130 N.am      1 <0>        -0.7091
     25 C18        -0.6492   -3.1671   -1.1333 C.2       1 <0>         0.5084
     26 O5          0.4507   -2.8882   -1.5614 O.2       1 <0>        -0.5060
     27 C19        -0.8155   -4.3196   -0.1767 C.3       1 <0>         0.1649
     28 H2         -1.5236   -5.0369   -0.5916 H         1 <0>         0.1222
     29 C20        -1.3422   -3.7992    1.1622 C.3       1 <0>        -0.0934
     30 C21        -1.6247   -4.9627    2.0774 C.ar      1 <0>        -0.0836
     31 C22        -2.8728   -5.5571    2.0745 C.ar      1 <0>        -0.1147
     32 C23        -3.1319   -6.6243    2.9140 C.ar      1 <0>        -0.1167
     33 C24        -2.1429   -7.0976    3.7559 C.ar      1 <0>        -0.1179
     34 C25        -0.8946   -6.5038    3.7580 C.ar      1 <0>        -0.1172
     35 C26        -0.6341   -5.4393    2.9155 C.ar      1 <0>        -0.1046
     36 N3          0.4789   -4.9742    0.0289 N.am      1 <0>        -0.5973
     37 C27         0.7809   -6.3805   -0.2602 C.3       1 <0>         0.1572
     38 C28         2.2296   -6.5880    0.1101 C.ar      1 <0>         0.1420
     39 C29         2.6932   -5.3562    0.5775 C.ar      1 <0>        -0.2086
     40 C30         4.0229   -5.2506    0.9976 C.ar      1 <0>        -0.0025
     41 C31         4.8218   -6.3793    0.9299 C.ar      1 <0>        -0.1785
     42 C32         4.2858   -7.5623    0.4544 C.ar      1 <0>         0.1334
     43 N4          3.0262   -7.6321    0.0642 N.ar      1 <0>        -0.4708
     44 C33         1.5877   -4.3839    0.5082 C.2       1 <0>         0.5761
     45 O6          1.6664   -3.2169    0.8389 O.2       1 <0>        -0.5005
     46 H3         -1.9715    1.6261    0.9685 H         1 <0>         0.0539
     47 H4         -0.3613    1.0213    0.5107 H         1 <0>         0.0543
     48 H5         -1.1741    2.2409   -0.4993 H         1 <0>         0.0525
     49 H6         -2.1255   -0.6257   -0.0582 H         1 <0>         0.0704
     50 H7         -3.9030    1.1706   -0.4062 H         1 <0>         0.0521
     51 H8         -3.1658    1.4822   -1.9960 H         1 <0>         0.0623
     52 H9         -3.8745   -0.1115   -1.6406 H         1 <0>         0.0840
     53 H10        -1.0688    0.6946   -2.5921 H         1 <0>         0.0747
     54 H11        -0.0513   -0.2766   -1.5012 H         1 <0>         0.0852
     55 H12        -0.8711   -1.7215   -3.2873 H         1 <0>         0.1100
     56 H13        -2.1907   -0.0043   -4.6708 H         1 <0>         0.4058
     57 H14        -3.4370    1.5076   -6.0921 H         1 <0>         0.0782
     58 H15        -5.1956    1.6682   -5.8690 H         1 <0>         0.0840
     59 H16        -3.1328    2.1434   -3.6728 H         1 <0>         0.0788
     60 H17        -6.1188    2.7434   -3.8740 H         1 <0>         0.0625
     61 H18        -5.3830    1.4540   -2.8921 H         1 <0>         0.0647
     62 H19        -5.8652    3.4575   -1.5130 H         1 <0>         0.0600
     63 H20        -4.1138    3.1548   -1.6095 H         1 <0>         0.0665
     64 H21        -5.6743    5.1399   -3.3245 H         1 <0>         0.0605
     65 H22        -4.6218    5.5577   -1.9512 H         1 <0>         0.0596
     66 H23        -3.4240    5.8293   -4.1053 H         1 <0>         0.0611
     67 H24        -2.6882    4.5399   -3.1233 H         1 <0>         0.0606
     68 H25        -2.9418    3.8258   -5.4844 H         1 <0>         0.0618
     69 H26        -4.6932    4.1285   -5.3878 H         1 <0>         0.0631
     70 H27        -3.9343   -0.9196   -6.7024 H         1 <0>         0.0956
     71 H28        -4.1188   -4.9282   -5.1438 H         1 <0>         0.0575
     72 H29        -2.7765   -4.6150   -4.0176 H         1 <0>         0.0961
     73 H30        -4.4507   -4.2628   -3.5266 H         1 <0>         0.0655
     74 H31        -5.9990    0.2748   -6.8277 H         1 <0>         0.3908
     75 H32        -2.5902   -2.6221   -1.1159 H         1 <0>         0.4097
     76 H33        -0.5948   -3.1506    1.6193 H         1 <0>         0.0971
     77 H34        -2.2603   -3.2355    0.9971 H         1 <0>         0.0922
     78 H35        -3.6454   -5.1873    1.4168 H         1 <0>         0.1235
     79 H36        -4.1072   -7.0882    2.9123 H         1 <0>         0.1232
     80 H37        -2.3456   -7.9309    4.4122 H         1 <0>         0.1218
     81 H38        -0.1220   -6.8733    4.4160 H         1 <0>         0.1203
     82 H39         0.3423   -4.9777    2.9145 H         1 <0>         0.1142
     83 H40         0.1443   -7.0311    0.3396 H         1 <0>         0.1075
     84 H41         0.6325   -6.5850   -1.3206 H         1 <0>         0.1047
     85 H42         4.4159   -4.3140    1.3645 H         1 <0>         0.1443
     86 H43         5.8539   -6.3363    1.2452 H         1 <0>         0.1481
     87 H44         4.9080   -8.4435    0.4007 H         1 <0>         0.1688
@<TRIPOS>BOND
     1    1    2 1
     2    1   46 1
     3    1   47 1
     4    1   48 1
     5    2    3 1
     6    2    4 1
     7    2   49 1
     8    3   50 1
     9    3   51 1
    10    3   52 1
    11    4    5 1
    12    4   53 1
    13    4   54 1
    14    5    6 1
    15    5   24 1
    16    5   55 1
    17    6    7 2
    18    6    8 am
    19    8    9 1
    20    8   56 1
    21    9   10 1
    22    9   11 1
    23    9   18 1
    24   11   12 1
    25   11   57 1
    26   11   58 1
    27   12   17 1
    28   12   13 1
    29   12   59 1
    30   13   14 1
    31   13   60 1
    32   13   61 1
    33   14   15 1
    34   14   62 1
    35   14   63 1
    36   15   16 1
    37   15   64 1
    38   15   65 1
    39   16   17 1
    40   16   66 1
    41   16   67 1
    42   17   68 1
    43   17   69 1
    44   18   19 1
    45   18   23 1
    46   18   70 1
    47   19   20 2
    48   19   21 1
    49   21   22 1
    50   22   71 1
    51   22   72 1
    52   22   73 1
    53   23   74 1
    54   24   25 am
    55   24   75 1
    56   25   26 2
    57   25   27 1
    58   27   28 1
    59   27   29 1
    60   27   36 1
    61   29   30 1
    62   29   76 1
    63   29   77 1
    64   30   35 ar
    65   30   31 ar
    66   31   32 ar
    67   31   78 1
    68   32   33 ar
    69   32   79 1
    70   33   34 ar
    71   33   80 1
    72   34   35 ar
    73   34   81 1
    74   35   82 1
    75   36   44 am
    76   36   37 1
    77   37   38 1
    78   37   83 1
    79   37   84 1
    80   38   43 ar
    81   38   39 ar
    82   39   40 ar
    83   39   44 1
    84   40   41 ar
    85   40   85 1
    86   41   42 ar
    87   41   86 1
    88   42   43 ar
    89   42   87 1
    90   44   45 2
@<TRIPOS>MOLECULE
CHEMBL353306__2
   87    90     0     0     0
SMALL
USER_CHARGES

@<TRIPOS>ATOM
      1 C1         -0.0187    1.5258    0.0104 C.3       1 <0>        -0.1483
      2 C2          0.0021   -0.0041    0.0020 C.3       1 <0>        -0.0896
      3 C3          0.7421   -0.5109    1.2415 C.3       1 <0>        -0.1413
      4 C4         -1.4333   -0.5336    0.0129 C.3       1 <0>        -0.1241
      5 C5         -1.4157   -2.0577   -0.1212 C.3       1 <0>         0.1287
      6 C6         -2.8192   -2.5900    0.0125 C.2       1 <0>         0.5047
      7 O1         -3.3197   -3.2157   -0.8979 O.2       1 <0>        -0.5110
      8 N1         -3.5181   -2.3707    1.1439 N.am      1 <0>        -0.7196
      9 C7         -4.8824   -2.8882    1.2739 C.3       1 <0>         0.1182
     10 H1         -4.9577   -3.8471    0.7611 H         1 <0>         0.1096
     11 C8         -5.2184   -3.0741    2.7549 C.3       1 <0>        -0.1375
     12 C9         -4.3164   -4.1569    3.3506 C.3       1 <0>        -0.0829
     13 C10        -4.6310   -5.5017    2.6923 C.3       1 <0>        -0.1176
     14 C11        -3.7289   -6.5845    3.2879 C.3       1 <0>        -0.1193
     15 C12        -3.9774   -6.6835    4.7943 C.3       1 <0>        -0.1204
     16 C13        -3.6628   -5.3387    5.4526 C.3       1 <0>        -0.1201
     17 C14        -4.5649   -4.2559    4.8570 C.3       1 <0>        -0.1126
     18 C15        -5.8657   -1.8968    0.6484 C.3       1 <0>         0.1062
     19 C16        -7.2692   -2.4292    0.7822 C.2       1 <0>         0.4650
     20 O2         -7.9002   -2.7237   -0.2052 O.2       1 <0>        -0.4720
     21 O3         -7.8182   -2.5760    1.9982 O.3       1 <0>        -0.3472
     22 C17        -9.1522   -3.0859    2.0504 C.3       1 <0>         0.0302
     23 O4         -5.5519   -1.7232   -0.7349 O.3       1 <0>        -0.5252
     24 N2         -0.8765   -2.4263   -1.4325 N.am      1 <0>        -0.7104
     25 C18         0.4560   -2.5245   -1.6099 C.2       1 <0>         0.5068
     26 O5          1.2086   -2.3077   -0.6839 O.2       1 <0>        -0.4971
     27 C19         1.0106   -2.9037   -2.9588 C.3       1 <0>         0.1653
     28 H2          0.6999   -2.1669   -3.6996 H         1 <0>         0.1225
     29 C20         0.4819   -4.2828   -3.3583 C.3       1 <0>        -0.0945
     30 C21         0.9365   -4.6090   -4.7576 C.ar      1 <0>        -0.0830
     31 C22         0.1567   -4.2462   -5.8399 C.ar      1 <0>        -0.1145
     32 C23         0.5737   -4.5455   -7.1234 C.ar      1 <0>        -0.1169
     33 C24         1.7706   -5.2071   -7.3247 C.ar      1 <0>        -0.1183
     34 C25         2.5508   -5.5691   -6.2425 C.ar      1 <0>        -0.1175
     35 C26         2.1359   -5.2660   -4.9592 C.ar      1 <0>        -0.1050
     36 N3          2.4736   -2.9421   -2.8921 N.am      1 <0>        -0.5957
     37 C27         3.3875   -2.1164   -3.6893 C.3       1 <0>         0.1575
     38 C28         4.7848   -2.5082   -3.2736 C.ar      1 <0>         0.1425
     39 C29         4.6391   -3.4977   -2.2987 C.ar      1 <0>        -0.2086
     40 C30         5.7865   -4.0550   -1.7256 C.ar      1 <0>        -0.0026
     41 C31         7.0205   -3.5965   -2.1543 C.ar      1 <0>        -0.1787
     42 C32         7.0789   -2.6129   -3.1250 C.ar      1 <0>         0.1336
     43 N4          5.9781   -2.1049   -3.6483 N.ar      1 <0>        -0.4708
     44 C33         3.2002   -3.7357   -2.0859 C.2       1 <0>         0.5770
     45 O6          2.7371   -4.5358   -1.2968 O.2       1 <0>        -0.5031
     46 H3          1.0039    1.9031    0.0027 H         1 <0>         0.0547
     47 H4         -0.5459    1.8868   -0.8726 H         1 <0>         0.0514
     48 H5         -0.5289    1.8773    0.9072 H         1 <0>         0.0531
     49 H6          0.5123   -0.3556   -0.8948 H         1 <0>         0.0763
     50 H7          1.7647   -0.1336    1.2338 H         1 <0>         0.0496
     51 H8          0.2319   -0.1594    2.1383 H         1 <0>         0.0424
     52 H9          0.7568   -1.6008    1.2356 H         1 <0>         0.0718
     53 H10        -1.9156   -0.2570    0.9504 H         1 <0>         0.0767
     54 H11        -1.9862   -0.1019   -0.8214 H         1 <0>         0.0733
     55 H12        -0.7891   -2.4841    0.6622 H         1 <0>         0.1212
     56 H13        -3.1177   -1.8703    1.8720 H         1 <0>         0.4075
     57 H14        -5.0574   -2.1352    3.2846 H         1 <0>         0.0775
     58 H15        -6.2615   -3.3740    2.8560 H         1 <0>         0.1050
     59 H16        -3.2725   -3.8996    3.1706 H         1 <0>         0.0714
     60 H17        -5.6748   -5.7590    2.8722 H         1 <0>         0.0626
     61 H18        -4.4539   -5.4312    1.6191 H         1 <0>         0.0608
     62 H19        -3.9530   -7.5426    2.8189 H         1 <0>         0.0609
     63 H20        -2.6851   -6.3273    3.1080 H         1 <0>         0.0603
     64 H21        -5.0212   -6.9408    4.9742 H         1 <0>         0.0611
     65 H22        -3.3348   -7.4549    5.2186 H         1 <0>         0.0602
     66 H23        -3.8398   -5.4092    6.5258 H         1 <0>         0.0616
     67 H24        -2.6190   -5.0815    5.2727 H         1 <0>         0.0607
     68 H25        -4.3407   -3.2978    5.3260 H         1 <0>         0.0625
     69 H26        -5.6087   -4.5131    5.0369 H         1 <0>         0.0638
     70 H27        -5.7904   -0.9379    1.1612 H         1 <0>         0.0964
     71 H28        -9.1809   -4.0756    1.5946 H         1 <0>         0.0634
     72 H29        -9.4743   -3.1549    3.0895 H         1 <0>         0.1069
     73 H30        -9.8187   -2.4161    1.5071 H         1 <0>         0.0632
     74 H31        -4.6615   -1.3824   -0.8964 H         1 <0>         0.3843
     75 H32        -1.4784   -2.5997   -2.1731 H         1 <0>         0.4102
     76 H33         0.8659   -5.0332   -2.6673 H         1 <0>         0.0965
     77 H34        -0.6074   -4.2788   -3.3218 H         1 <0>         0.0951
     78 H35        -0.7784   -3.7293   -5.6826 H         1 <0>         0.1240
     79 H36        -0.0359   -4.2627   -7.9689 H         1 <0>         0.1233
     80 H37         2.0960   -5.4415   -8.3275 H         1 <0>         0.1216
     81 H38         3.4857   -6.0863   -6.3998 H         1 <0>         0.1201
     82 H39         2.7472   -5.5455   -4.1139 H         1 <0>         0.1139
     83 H40         3.2428   -2.3163   -4.7510 H         1 <0>         0.1072
     84 H41         3.2169   -1.0604   -3.4801 H         1 <0>         0.1050
     85 H42         5.7120   -4.8219   -0.9688 H         1 <0>         0.1439
     86 H43         7.9289   -4.0027   -1.7346 H         1 <0>         0.1479
     87 H44         8.0408   -2.2541   -3.4602 H         1 <0>         0.1686
@<TRIPOS>BOND
     1    1    2 1
     2    1   46 1
     3    1   47 1
     4    1   48 1
     5    2    3 1
     6    2    4 1
     7    2   49 1
     8    3   50 1
     9    3   51 1
    10    3   52 1
    11    4    5 1
    12    4   53 1
    13    4   54 1
    14    5    6 1
    15    5   24 1
    16    5   55 1
    17    6    7 2
    18    6    8 am
    19    8    9 1
    20    8   56 1
    21    9   10 1
    22    9   11 1
    23    9   18 1
    24   11   12 1
    25   11   57 1
    26   11   58 1
    27   12   17 1
    28   12   13 1
    29   12   59 1
    30   13   14 1
    31   13   60 1
    32   13   61 1
    33   14   15 1
    34   14   62 1
    35   14   63 1
    36   15   16 1
    37   15   64 1
    38   15   65 1
    39   16   17 1
    40   16   66 1
    41   16   67 1
    42   17   68 1
    43   17   69 1
    44   18   19 1
    45   18   23 1
    46   18   70 1
    47   19   20 2
    48   19   21 1
    49   21   22 1
    50   22   71 1
    51   22   72 1
    52   22   73 1
    53   23   74 1
    54   24   25 am
    55   24   75 1
    56   25   26 2
    57   25   27 1
    58   27   28 1
    59   27   29 1
    60   27   36 1
    61   29   30 1
    62   29   76 1
    63   29   77 1
    64   30   35 ar
    65   30   31 ar
    66   31   32 ar
    67   31   78 1
    68   32   33 ar
    69   32   79 1
    70   33   34 ar
    71   33   80 1
    72   34   35 ar
    73   34   81 1
    74   35   82 1
    75   36   44 am
    76   36   37 1
    77   37   38 1
    78   37   83 1
    79   37   84 1
    80   38   43 ar
    81   38   39 ar
    82   39   40 ar
    83   39   44 1
    84   40   41 ar
    85   40   85 1
    86   41   42 ar
    87   41   86 1
    88   42   43 ar
    89   42   87 1
    90   44   45 2
@<TRIPOS>MOLECULE
CHEMBL353306__3
   87    90     0     0     0
SMALL
USER_CHARGES

@<TRIPOS>ATOM
      1 C1         -0.0187    1.5258    0.0104 C.3       1 <0>        -0.1472
      2 C2          0.0021   -0.0041    0.0020 C.3       1 <0>        -0.0910
      3 C3          0.7421   -0.5109    1.2415 C.3       1 <0>        -0.1405
      4 C4         -1.4333   -0.5336    0.0129 C.3       1 <0>        -0.1171
      5 C5         -1.4157   -2.0577   -0.1212 C.3       1 <0>         0.1326
      6 C6         -2.8192   -2.5900    0.0125 C.2       1 <0>         0.5323
      7 O1         -3.3197   -3.2157   -0.8979 O.2       1 <0>        -0.5300
      8 N1         -3.5181   -2.3707    1.1439 N.am      1 <0>        -0.7161
      9 C7         -4.8824   -2.8882    1.2739 C.3       1 <0>         0.1204
     10 H1         -4.9577   -3.8471    0.7611 H         1 <0>         0.1094
     11 C8         -5.2184   -3.0741    2.7549 C.3       1 <0>        -0.1287
     12 C9         -4.3164   -4.1569    3.3506 C.3       1 <0>        -0.0830
     13 C10        -4.6310   -5.5017    2.6923 C.3       1 <0>        -0.1175
     14 C11        -3.7289   -6.5845    3.2879 C.3       1 <0>        -0.1197
     15 C12        -3.9774   -6.6835    4.7943 C.3       1 <0>        -0.1208
     16 C13        -3.6628   -5.3387    5.4526 C.3       1 <0>        -0.1202
     17 C14        -4.5649   -4.2559    4.8570 C.3       1 <0>        -0.1138
     18 C15        -5.8657   -1.8968    0.6484 C.3       1 <0>         0.1061
     19 C16        -5.5348   -1.7138   -0.8104 C.2       1 <0>         0.4758
     20 O2         -6.3188   -2.0715   -1.6572 O.2       1 <0>        -0.4814
     21 O3         -4.3690   -1.1533   -1.1689 O.3       1 <0>        -0.3445
     22 C17        -4.1211   -1.0108   -2.5690 C.3       1 <0>         0.0398
     23 O4         -7.1965   -2.4016    0.7752 O.3       1 <0>        -0.5336
     24 N2         -0.8765   -2.4263   -1.4325 N.am      1 <0>        -0.7093
     25 C18         0.4560   -2.5245   -1.6099 C.2       1 <0>         0.5058
     26 O5          1.2086   -2.3077   -0.6839 O.2       1 <0>        -0.4969
     27 C19         1.0106   -2.9037   -2.9588 C.3       1 <0>         0.1650
     28 H2          0.6999   -2.1669   -3.6996 H         1 <0>         0.1212
     29 C20         0.4819   -4.2828   -3.3583 C.3       1 <0>        -0.0943
     30 C21         0.9365   -4.6090   -4.7576 C.ar      1 <0>        -0.0828
     31 C22         0.1567   -4.2462   -5.8399 C.ar      1 <0>        -0.1149
     32 C23         0.5737   -4.5455   -7.1234 C.ar      1 <0>        -0.1168
     33 C24         1.7706   -5.2071   -7.3247 C.ar      1 <0>        -0.1183
     34 C25         2.5508   -5.5691   -6.2425 C.ar      1 <0>        -0.1171
     35 C26         2.1359   -5.2660   -4.9592 C.ar      1 <0>        -0.1047
     36 N3          2.4736   -2.9421   -2.8921 N.am      1 <0>        -0.5956
     37 C27         3.3875   -2.1164   -3.6893 C.3       1 <0>         0.1576
     38 C28         4.7848   -2.5082   -3.2736 C.ar      1 <0>         0.1424
     39 C29         4.6391   -3.4977   -2.2987 C.ar      1 <0>        -0.2084
     40 C30         5.7865   -4.0550   -1.7256 C.ar      1 <0>        -0.0027
     41 C31         7.0205   -3.5965   -2.1543 C.ar      1 <0>        -0.1786
     42 C32         7.0789   -2.6129   -3.1250 C.ar      1 <0>         0.1335
     43 N4          5.9781   -2.1049   -3.6483 N.ar      1 <0>        -0.4708
     44 C33         3.2002   -3.7357   -2.0859 C.2       1 <0>         0.5770
     45 O6          2.7371   -4.5358   -1.2968 O.2       1 <0>        -0.5028
     46 H3          1.0039    1.9031    0.0027 H         1 <0>         0.0534
     47 H4         -0.5459    1.8868   -0.8726 H         1 <0>         0.0504
     48 H5         -0.5289    1.8773    0.9072 H         1 <0>         0.0528
     49 H6          0.5123   -0.3556   -0.8948 H         1 <0>         0.0747
     50 H7          1.7647   -0.1336    1.2338 H         1 <0>         0.0484
     51 H8          0.2319   -0.1594    2.1383 H         1 <0>         0.0418
     52 H9          0.7568   -1.6008    1.2356 H         1 <0>         0.0715
     53 H10        -1.9156   -0.2570    0.9504 H         1 <0>         0.0748
     54 H11        -1.9862   -0.1019   -0.8214 H         1 <0>         0.0751
     55 H12        -0.7891   -2.4841    0.6622 H         1 <0>         0.1164
     56 H13        -3.1177   -1.8703    1.8720 H         1 <0>         0.4052
     57 H14        -5.0574   -2.1352    3.2846 H         1 <0>         0.0787
     58 H15        -6.2615   -3.3740    2.8560 H         1 <0>         0.0849
     59 H16        -3.2725   -3.8996    3.1706 H         1 <0>         0.0745
     60 H17        -5.6748   -5.7590    2.8722 H         1 <0>         0.0640
     61 H18        -4.4539   -5.4312    1.6191 H         1 <0>         0.0625
     62 H19        -3.9530   -7.5426    2.8189 H         1 <0>         0.0615
     63 H20        -2.6851   -6.3273    3.1080 H         1 <0>         0.0604
     64 H21        -5.0212   -6.9408    4.9742 H         1 <0>         0.0614
     65 H22        -3.3348   -7.4549    5.2186 H         1 <0>         0.0606
     66 H23        -3.8398   -5.4092    6.5258 H         1 <0>         0.0620
     67 H24        -2.6190   -5.0815    5.2727 H         1 <0>         0.0612
     68 H25        -4.3407   -3.2978    5.3260 H         1 <0>         0.0625
     69 H26        -5.6087   -4.5131    5.0369 H         1 <0>         0.0637
     70 H27        -5.7904   -0.9379    1.1612 H         1 <0>         0.0954
     71 H28        -4.8956   -0.3855   -3.0133 H         1 <0>         0.0573
     72 H29        -3.1472   -0.5452   -2.7200 H         1 <0>         0.0960
     73 H30        -4.1316   -1.9929   -3.0417 H         1 <0>         0.0669
     74 H31        -7.4777   -2.5440    1.6894 H         1 <0>         0.3905
     75 H32        -1.4784   -2.5997   -2.1731 H         1 <0>         0.4071
     76 H33         0.8659   -5.0332   -2.6673 H         1 <0>         0.0968
     77 H34        -0.6074   -4.2788   -3.3218 H         1 <0>         0.0939
     78 H35        -0.7784   -3.7293   -5.6826 H         1 <0>         0.1230
     79 H36        -0.0359   -4.2627   -7.9689 H         1 <0>         0.1231
     80 H37         2.0960   -5.4415   -8.3275 H         1 <0>         0.1217
     81 H38         3.4857   -6.0863   -6.3998 H         1 <0>         0.1202
     82 H39         2.7472   -5.5455   -4.1139 H         1 <0>         0.1141
     83 H40         3.2428   -2.3163   -4.7510 H         1 <0>         0.1069
     84 H41         3.2169   -1.0604   -3.4801 H         1 <0>         0.1049
     85 H42         5.7120   -4.8219   -0.9688 H         1 <0>         0.1440
     86 H43         7.9289   -4.0027   -1.7346 H         1 <0>         0.1479
     87 H44         8.0408   -2.2541   -3.4602 H         1 <0>         0.1686
@<TRIPOS>BOND
     1    1    2 1
     2    1   46 1
     3    1   47 1
     4    1   48 1
     5    2    3 1
     6    2    4 1
     7    2   49 1
     8    3   50 1
     9    3   51 1
    10    3   52 1
    11    4    5 1
    12    4   53 1
    13    4   54 1
    14    5    6 1
    15    5   24 1
    16    5   55 1
    17    6    7 2
    18    6    8 am
    19    8    9 1
    20    8   56 1
    21    9   10 1
    22    9   11 1
    23    9   18 1
    24   11   12 1
    25   11   57 1
    26   11   58 1
    27   12   17 1
    28   12   13 1
    29   12   59 1
    30   13   14 1
    31   13   60 1
    32   13   61 1
    33   14   15 1
    34   14   62 1
    35   14   63 1
    36   15   16 1
    37   15   64 1
    38   15   65 1
    39   16   17 1
    40   16   66 1
    41   16   67 1
    42   17   68 1
    43   17   69 1
    44   18   19 1
    45   18   23 1
    46   18   70 1
    47   19   20 2
    48   19   21 1
    49   21   22 1
    50   22   71 1
    51   22   72 1
    52   22   73 1
    53   23   74 1
    54   24   25 am
    55   24   75 1
    56   25   26 2
    57   25   27 1
    58   27   28 1
    59   27   29 1
    60   27   36 1
    61   29   30 1
    62   29   76 1
    63   29   77 1
    64   30   35 ar
    65   30   31 ar
    66   31   32 ar
    67   31   78 1
    68   32   33 ar
    69   32   79 1
    70   33   34 ar
    71   33   80 1
    72   34   35 ar
    73   34   81 1
    74   35   82 1
    75   36   44 am
    76   36   37 1
    77   37   38 1
    78   37   83 1
    79   37   84 1
    80   38   43 ar
    81   38   39 ar
    82   39   40 ar
    83   39   44 1
    84   40   41 ar
    85   40   85 1
    86   41   42 ar
    87   41   86 1
    88   42   43 ar
    89   42   87 1
    90   44   45 2
@<TRIPOS>MOLECULE
CHEMBL230262
   58    60     0     0     0
SMALL
USER_CHARGES

@<TRIPOS>ATOM
      1 C1          0.8940   -1.6684   -0.2828 C.3       1 <0>        -0.1525
      2 C2          0.1056   -0.3822   -0.0279 C.3       1 <0>        -0.1043
      3 C3         -1.3706   -0.6712   -0.1203 C.ar      1 <0>         0.2474
      4 C4         -2.0171   -0.6541   -1.3543 C.ar      1 <0>        -0.1806
      5 C5         -3.3964   -0.9310   -1.3875 C.ar      1 <0>         0.5381
      6 N1         -4.0249   -1.1964   -0.2481 N.ar      1 <0>        -0.5760
      7 C6         -3.3682   -1.2013    0.9023 C.ar      1 <0>         0.6641
      8 N2         -2.0684   -0.9498    0.9687 N.ar      1 <0>        -0.5688
      9 N3         -4.0580   -1.4823    2.0679 N.pl3     1 <0>        -0.7927
     10 N4         -4.0860   -0.9264   -2.5867 N.pl3     1 <0>        -0.7728
     11 C7         -1.2715   -0.3516   -2.5999 C.ar      1 <0>        -0.0298
     12 C8         -0.7732    0.9314   -2.8247 C.ar      1 <0>        -0.1499
     13 C9         -0.0821    1.2097   -3.9847 C.ar      1 <0>        -0.0683
     14 C10         0.1246    0.2214   -4.9347 C.ar      1 <0>        -0.1246
     15 C11        -0.3659   -1.0577   -4.7155 C.ar      1 <0>         0.2293
     16 C12        -1.0602   -1.3479   -3.5484 C.ar      1 <0>        -0.1790
     17 N5         -0.1622   -2.0748   -5.6551 N.pl3     1 <0>        -0.6252
     18 C13         0.3060   -1.7160   -7.0006 C.3       1 <0>         0.1211
     19 C14         1.4398   -0.6941   -6.8452 C.3       1 <0>        -0.1393
     20 C15         0.8803    0.5686   -6.1907 C.3       1 <0>        -0.0809
     21 C16        -0.4112   -3.4748   -5.3023 C.3       1 <0>         0.1247
     22 C17        -1.8653   -3.8297   -5.6195 C.3       1 <0>        -0.1392
     23 C18        -2.1255   -5.2917   -5.2511 C.3       1 <0>        -0.1094
     24 C19        -3.5795   -5.6466   -5.5682 C.3       1 <0>        -0.1119
     25 C20        -3.8358   -7.0867   -5.2053 C.2       1 <0>         0.4553
     26 O1         -2.9466   -7.7600   -4.7408 O.2       1 <0>        -0.5048
     27 O2         -5.0518   -7.6213   -5.3982 O.3       1 <0>        -0.3555
     28 C21        -5.2235   -8.9918   -5.0318 C.3       1 <0>         0.0321
     29 H1          1.9582   -1.4750   -0.1481 H         1 <0>         0.0866
     30 H2          0.5726   -2.4369    0.4201 H         1 <0>         0.0603
     31 H3          0.7129   -2.0096   -1.3020 H         1 <0>         0.0726
     32 H4          0.3401   -0.0035    0.9670 H         1 <0>         0.1016
     33 H5          0.3771    0.3644   -0.7742 H         1 <0>         0.1254
     34 H6         -5.0087   -1.6720    2.0351 H         1 <0>         0.4447
     35 H7         -3.5910   -1.4897    2.9180 H         1 <0>         0.4299
     36 H8         -3.6189   -0.7312   -3.4141 H         1 <0>         0.4331
     37 H9         -5.0367   -1.1184   -2.6002 H         1 <0>         0.4269
     38 H10        -0.9292    1.7075   -2.0899 H         1 <0>         0.1229
     39 H11         0.3009    2.2051   -4.1548 H         1 <0>         0.1310
     40 H12        -1.4397   -2.3448   -3.3789 H         1 <0>         0.1260
     41 H13         0.6772   -2.6045   -7.5115 H         1 <0>         0.0846
     42 H14        -0.5121   -1.2760   -7.5710 H         1 <0>         0.0655
     43 H15         2.2258   -1.1134   -6.2171 H         1 <0>         0.0719
     44 H16         1.8462   -0.4476   -7.8261 H         1 <0>         0.0842
     45 H17         0.2081    1.0679   -6.8885 H         1 <0>         0.0792
     46 H18         1.7027    1.2394   -5.9419 H         1 <0>         0.0818
     47 H19         0.2537   -4.1184   -5.8782 H         1 <0>         0.0823
     48 H20        -0.2256   -3.6199   -4.2381 H         1 <0>         0.0739
     49 H21        -2.5303   -3.1860   -5.0436 H         1 <0>         0.0641
     50 H22        -2.0510   -3.6846   -6.6837 H         1 <0>         0.0731
     51 H23        -1.4605   -5.9353   -5.8269 H         1 <0>         0.0781
     52 H24        -1.9398   -5.4368   -4.1868 H         1 <0>         0.0715
     53 H25        -4.2445   -5.0030   -4.9923 H         1 <0>         0.1030
     54 H26        -3.7652   -5.5015   -6.6324 H         1 <0>         0.1089
     55 H27        -4.5365   -9.6109   -5.6087 H         1 <0>         0.0632
     56 H28        -5.0159   -9.1124   -3.9686 H         1 <0>         0.0610
     57 H29        -6.2491   -9.2974   -5.2387 H         1 <0>         0.1053
     58 H30        -1.6225   -0.9670    1.8299 H         1 <0>         0.4408
@<TRIPOS>BOND
     1    1    2 1
     2    1   29 1
     3    1   30 1
     4    1   31 1
     5    2    3 1
     6    2   32 1
     7    2   33 1
     8    3    8 ar
     9    3    4 ar
    10    4    5 ar
    11    4   11 1
    12    5    6 ar
    13    5   10 1
    14    6    7 ar
    15    7    8 ar
    16    7    9 1
    17    8   58 1
    18    9   34 1
    19    9   35 1
    20   10   36 1
    21   10   37 1
    22   11   16 ar
    23   11   12 ar
    24   12   13 ar
    25   12   38 1
    26   13   14 ar
    27   13   39 1
    28   14   20 1
    29   14   15 ar
    30   15   16 ar
    31   15   17 1
    32   16   40 1
    33   17   18 1
    34   17   21 1
    35   18   19 1
    36   18   41 1
    37   18   42 1
    38   19   20 1
    39   19   43 1
    40   19   44 1
    41   20   45 1
    42   20   46 1
    43   21   22 1
    44   21   47 1
    45   21   48 1
    46   22   23 1
    47   22   49 1
    48   22   50 1
    49   23   24 1
    50   23   51 1
    51   23   52 1
    52   24   25 1
    53   24   53 1
    54   24   54 1
    55   25   26 2
    56   25   27 1
    57   27   28 1
    58   28   55 1
    59   28   56 1
    60   28   57 1
@<TRIPOS>MOLECULE
CHEMBL342505
   92    93     0     0     0
SMALL
USER_CHARGES

@<TRIPOS>ATOM
      1 C1          0.0310    1.1768    0.5323 C.3       1 <0>        -0.1515
      2 C2          0.1346   -0.3488    0.4807 C.3       1 <0>        -0.1197
      3 C3          0.6707   -0.7776   -0.8866 C.3       1 <0>        -0.1240
      4 C4          0.7743   -2.3032   -0.9383 C.3       1 <0>        -0.1234
      5 C5          1.3104   -2.7320   -2.3056 C.3       1 <0>         0.1538
      6 H1          2.2557   -2.2254   -2.5004 H         1 <0>         0.0850
      7 C6          1.5285   -4.2231   -2.3146 C.2       1 <0>         0.5082
      8 O1          0.8674   -4.9282   -3.0472 O.2       1 <0>        -0.5130
      9 N1          2.4581   -4.7731   -1.5086 N.am      1 <0>        -0.7334
     10 C7          2.5947   -6.2299   -1.4352 C.3       1 <0>         0.1146
     11 H2          2.4466   -6.6590   -2.4262 H         1 <0>         0.0983
     12 C8          1.5459   -6.7926   -0.4738 C.3       1 <0>        -0.1195
     13 C9          1.5903   -8.3216   -0.5088 C.3       1 <0>        -0.0798
     14 C10         1.1767   -8.8121   -1.8978 C.3       1 <0>        -0.1171
     15 C11         1.2210  -10.3411   -1.9328 C.3       1 <0>        -0.1180
     16 C12         0.2576  -10.9033   -0.8856 C.3       1 <0>        -0.1191
     17 C13         0.6712  -10.4128    0.5034 C.3       1 <0>        -0.1174
     18 C14         0.6269   -8.8838    0.5384 C.3       1 <0>        -0.1117
     19 C15         3.9939   -6.5861   -0.9291 C.3       1 <0>         0.0964
     20 H3          4.1265   -7.6676   -0.9586 H         1 <0>         0.1285
     21 C16         5.0437   -5.9191   -1.8201 C.3       1 <0>        -0.1362
     22 C17         6.4407   -6.3652   -1.3839 C.3       1 <0>        -0.1076
     23 H4          6.5638   -6.1818   -0.3165 H         1 <0>         0.1045
     24 C18         7.4946   -5.5748   -2.1620 C.3       1 <0>        -0.1461
     25 C19         6.6083   -7.8365   -1.6635 C.2       1 <0>         0.5182
     26 O2          5.6999   -8.4662   -2.1625 O.2       1 <0>        -0.5333
     27 N2          7.7678   -8.4525   -1.3590 N.am      1 <0>        -0.7339
     28 C20         7.9308   -9.8828   -1.6308 C.3       1 <0>         0.1175
     29 C21         9.3277  -10.3289   -1.1945 C.3       1 <0>        -0.1317
     30 C22         9.4980  -11.8226   -1.4784 C.3       1 <0>        -0.1223
     31 C23        10.8949  -12.2687   -1.0422 C.3       1 <0>        -0.1524
     32 O3          4.1464   -6.1240    0.4145 O.3       1 <0>        -0.5564
     33 O4          0.3651   -2.3827   -3.3188 O.3       1 <0>        -0.7357
     34 P1          0.7113   -1.3860   -4.5349 P.3       1 <0>         2.2636
     35 O5          1.9594   -1.9026   -5.2848 O.2       1 <0>        -1.0886
     36 C24        -0.7022   -1.3156   -5.6841 C.3       1 <0>        -0.7177
     37 C25        -0.3278   -0.4682   -6.9017 C.3       1 <0>        -0.0597
     38 C26        -1.4963   -0.4100   -7.8516 C.ar      1 <0>        -0.0629
     39 C27        -1.6309   -1.3659   -8.8410 C.ar      1 <0>        -0.1224
     40 C28        -2.7027   -1.3125   -9.7124 C.ar      1 <0>        -0.1202
     41 C29        -3.6401   -0.3035   -9.5941 C.ar      1 <0>        -0.1376
     42 C30        -3.5060    0.6519   -8.6040 C.ar      1 <0>        -0.1206
     43 C31        -2.4365    0.5960   -7.7300 C.ar      1 <0>        -0.1227
     44 O6          0.9933    0.0273   -3.9782 O.3       1 <0>        -1.0791
     45 H5          1.0174    1.6134    0.3756 H         1 <0>         0.0557
     46 H6         -0.6471    1.5216   -0.2483 H         1 <0>         0.0564
     47 H7         -0.3509    1.4823    1.5065 H         1 <0>         0.0449
     48 H8          0.8127   -0.6936    1.2613 H         1 <0>         0.0547
     49 H9         -0.8518   -0.7854    0.6374 H         1 <0>         0.0548
     50 H10        -0.0074   -0.4328   -1.6672 H         1 <0>         0.0833
     51 H11         1.6571   -0.3410   -1.0434 H         1 <0>         0.0712
     52 H12         1.4524   -2.6480   -0.1577 H         1 <0>         0.0711
     53 H13        -0.2121   -2.7398   -0.7816 H         1 <0>         0.0723
     54 H14         3.0368   -4.2043   -0.9770 H         1 <0>         0.3920
     55 H15         1.7573   -6.4461    0.5378 H         1 <0>         0.0707
     56 H16         0.5559   -6.4508   -0.7755 H         1 <0>         0.0667
     57 H17         2.6028   -8.6608   -0.2903 H         1 <0>         0.0717
     58 H18         0.1641   -8.4729   -2.1163 H         1 <0>         0.0616
     59 H19         1.8630   -8.4115   -2.6439 H         1 <0>         0.0657
     60 H20         0.9264  -10.6905   -2.9224 H         1 <0>         0.0579
     61 H21         2.2336  -10.6803   -1.7143 H         1 <0>         0.0602
     62 H22        -0.7549  -10.5641   -1.1041 H         1 <0>         0.0593
     63 H23         0.2892  -11.9926   -0.9106 H         1 <0>         0.0558
     64 H24        -0.0151  -10.8134    1.2494 H         1 <0>         0.0566
     65 H25         1.6838  -10.7520    0.7219 H         1 <0>         0.0592
     66 H26         0.9215   -8.5344    1.5279 H         1 <0>         0.0595
     67 H27        -0.3857   -8.5446    0.3199 H         1 <0>         0.0595
     68 H28         4.8771   -6.2092   -2.8575 H         1 <0>         0.0858
     69 H29         4.9630   -4.8359   -1.7283 H         1 <0>         0.0782
     70 H30         7.3187   -5.6899   -3.2315 H         1 <0>         0.0634
     71 H31         7.4288   -4.5202   -1.8944 H         1 <0>         0.0718
     72 H32         8.4871   -5.9512   -1.9144 H         1 <0>         0.0568
     73 H33         8.4943   -7.9488   -0.9598 H         1 <0>         0.3992
     74 H34         7.1799  -10.4458   -1.0764 H         1 <0>         0.0662
     75 H35         7.8076  -10.0661   -2.6982 H         1 <0>         0.0664
     76 H36        10.0786   -9.7658   -1.7489 H         1 <0>         0.0685
     77 H37         9.4509  -10.1455   -0.1272 H         1 <0>         0.0684
     78 H38         8.7471  -12.3857   -0.9241 H         1 <0>         0.0650
     79 H39         9.3748  -12.0059   -2.5458 H         1 <0>         0.0651
     80 H40        11.6458  -11.7057   -1.5965 H         1 <0>         0.0542
     81 H41        11.0181  -12.0854    0.0252 H         1 <0>         0.0541
     82 H42        11.0162  -13.3329   -1.2444 H         1 <0>         0.0552
     83 H43         4.0410   -5.1681    0.5160 H         1 <0>         0.3670
     84 H44        -0.9575   -2.3245   -6.0082 H         1 <0>         0.0708
     85 H45        -1.5586   -0.8684   -5.1796 H         1 <0>         0.0709
     86 H46        -0.0725    0.5407   -6.5776 H         1 <0>         0.0797
     87 H47         0.5287   -0.9154   -7.4062 H         1 <0>         0.0821
     88 H48        -0.8985   -2.1543   -8.9335 H         1 <0>         0.1212
     89 H49        -2.8075   -2.0590  -10.4859 H         1 <0>         0.1185
     90 H50        -4.4771   -0.2614  -10.2753 H         1 <0>         0.1169
     91 H51        -4.2381    1.4404   -8.5118 H         1 <0>         0.1185
     92 H52        -2.3337    1.3403   -6.9542 H         1 <0>         0.1214
@<TRIPOS>BOND
     1    1    2 1
     2    1   45 1
     3    1   46 1
     4    1   47 1
     5    2    3 1
     6    2   48 1
     7    2   49 1
     8    3    4 1
     9    3   50 1
    10    3   51 1
    11    4    5 1
    12    4   52 1
    13    4   53 1
    14    5    6 1
    15    5    7 1
    16    5   33 1
    17    7    8 2
    18    7    9 am
    19    9   10 1
    20    9   54 1
    21   10   11 1
    22   10   12 1
    23   10   19 1
    24   12   13 1
    25   12   55 1
    26   12   56 1
    27   13   18 1
    28   13   14 1
    29   13   57 1
    30   14   15 1
    31   14   58 1
    32   14   59 1
    33   15   16 1
    34   15   60 1
    35   15   61 1
    36   16   17 1
    37   16   62 1
    38   16   63 1
    39   17   18 1
    40   17   64 1
    41   17   65 1
    42   18   66 1
    43   18   67 1
    44   19   20 1
    45   19   21 1
    46   19   32 1
    47   21   22 1
    48   21   68 1
    49   21   69 1
    50   22   23 1
    51   22   24 1
    52   22   25 1
    53   24   70 1
    54   24   71 1
    55   24   72 1
    56   25   26 2
    57   25   27 am
    58   27   28 1
    59   27   73 1
    60   28   29 1
    61   28   74 1
    62   28   75 1
    63   29   30 1
    64   29   76 1
    65   29   77 1
    66   30   31 1
    67   30   78 1
    68   30   79 1
    69   31   80 1
    70   31   81 1
    71   31   82 1
    72   32   83 1
    73   33   34 1
    74   34   35 2
    75   34   36 1
    76   34   44 1
    77   36   37 1
    78   36   84 1
    79   36   85 1
    80   37   38 1
    81   37   86 1
    82   37   87 1
    83   38   43 ar
    84   38   39 ar
    85   39   40 ar
    86   39   88 1
    87   40   41 ar
    88   40   89 1
    89   41   42 ar
    90   41   90 1
    91   42   43 ar
    92   42   91 1
    93   43   92 1
@<TRIPOS>MOLECULE
CHEMBL342505__1
   92    93     0     0     0
SMALL
USER_CHARGES

@<TRIPOS>ATOM
      1 C1          0.0310    1.1768    0.5323 C.3       1 <0>        -0.1515
      2 C2          0.1346   -0.3488    0.4807 C.3       1 <0>        -0.1197
      3 C3          0.6707   -0.7776   -0.8866 C.3       1 <0>        -0.1240
      4 C4          0.7743   -2.3032   -0.9383 C.3       1 <0>        -0.1234
      5 C5          1.3104   -2.7320   -2.3056 C.3       1 <0>         0.1538
      6 H1          2.2557   -2.2254   -2.5004 H         1 <0>         0.0850
      7 C6          1.5285   -4.2231   -2.3146 C.2       1 <0>         0.5082
      8 O1          0.8674   -4.9282   -3.0472 O.2       1 <0>        -0.5130
      9 N1          2.4581   -4.7731   -1.5086 N.am      1 <0>        -0.7334
     10 C7          2.5947   -6.2299   -1.4352 C.3       1 <0>         0.1146
     11 H2          2.4466   -6.6590   -2.4262 H         1 <0>         0.0983
     12 C8          1.5459   -6.7926   -0.4738 C.3       1 <0>        -0.1195
     13 C9          1.5903   -8.3216   -0.5088 C.3       1 <0>        -0.0798
     14 C10         1.1767   -8.8121   -1.8978 C.3       1 <0>        -0.1171
     15 C11         1.2210  -10.3411   -1.9328 C.3       1 <0>        -0.1180
     16 C12         0.2576  -10.9033   -0.8856 C.3       1 <0>        -0.1191
     17 C13         0.6712  -10.4128    0.5034 C.3       1 <0>        -0.1174
     18 C14         0.6269   -8.8838    0.5384 C.3       1 <0>        -0.1117
     19 C15         3.9939   -6.5861   -0.9291 C.3       1 <0>         0.0964
     20 H3          4.1265   -7.6676   -0.9586 H         1 <0>         0.1285
     21 C16         5.0437   -5.9191   -1.8201 C.3       1 <0>        -0.1362
     22 C17         6.4407   -6.3652   -1.3839 C.3       1 <0>        -0.1076
     23 H4          6.5638   -6.1818   -0.3165 H         1 <0>         0.1045
     24 C18         7.4946   -5.5748   -2.1620 C.3       1 <0>        -0.1461
     25 C19         6.6083   -7.8365   -1.6635 C.2       1 <0>         0.5182
     26 O2          5.6999   -8.4662   -2.1625 O.2       1 <0>        -0.5333
     27 N2          7.7678   -8.4525   -1.3590 N.am      1 <0>        -0.7339
     28 C20         7.9308   -9.8828   -1.6308 C.3       1 <0>         0.1175
     29 C21         9.3277  -10.3289   -1.1945 C.3       1 <0>        -0.1317
     30 C22         9.4980  -11.8226   -1.4784 C.3       1 <0>        -0.1223
     31 C23        10.8949  -12.2687   -1.0422 C.3       1 <0>        -0.1524
     32 O3          4.1464   -6.1240    0.4145 O.3       1 <0>        -0.5564
     33 O4          0.3651   -2.3827   -3.3188 O.3       1 <0>        -0.7357
     34 P1          0.7113   -1.3860   -4.5349 P.3       1 <0>         2.2636
     35 O5          1.9594   -1.9026   -5.2848 O.2       1 <0>        -1.0886
     36 C24        -0.7022   -1.3156   -5.6841 C.3       1 <0>        -0.7177
     37 C25        -0.3278   -0.4682   -6.9017 C.3       1 <0>        -0.0597
     38 C26        -1.4963   -0.4100   -7.8516 C.ar      1 <0>        -0.0629
     39 C27        -1.6309   -1.3659   -8.8410 C.ar      1 <0>        -0.1224
     40 C28        -2.7027   -1.3125   -9.7124 C.ar      1 <0>        -0.1202
     41 C29        -3.6401   -0.3035   -9.5941 C.ar      1 <0>        -0.1376
     42 C30        -3.5060    0.6519   -8.6040 C.ar      1 <0>        -0.1206
     43 C31        -2.4365    0.5960   -7.7300 C.ar      1 <0>        -0.1227
     44 O6          0.9933    0.0273   -3.9782 O.3       1 <0>        -1.0791
     45 H5          1.0174    1.6134    0.3756 H         1 <0>         0.0557
     46 H6         -0.6471    1.5216   -0.2483 H         1 <0>         0.0564
     47 H7         -0.3509    1.4823    1.5065 H         1 <0>         0.0449
     48 H8          0.8127   -0.6936    1.2613 H         1 <0>         0.0547
     49 H9         -0.8518   -0.7854    0.6374 H         1 <0>         0.0548
     50 H10        -0.0074   -0.4328   -1.6672 H         1 <0>         0.0833
     51 H11         1.6571   -0.3410   -1.0434 H         1 <0>         0.0712
     52 H12         1.4524   -2.6480   -0.1577 H         1 <0>         0.0711
     53 H13        -0.2121   -2.7398   -0.7816 H         1 <0>         0.0723
     54 H14         3.0368   -4.2043   -0.9770 H         1 <0>         0.3920
     55 H15         1.7573   -6.4461    0.5378 H         1 <0>         0.0707
     56 H16         0.5559   -6.4508   -0.7755 H         1 <0>         0.0667
     57 H17         2.6028   -8.6608   -0.2903 H         1 <0>         0.0717
     58 H18         0.1641   -8.4729   -2.1163 H         1 <0>         0.0616
     59 H19         1.8630   -8.4115   -2.6439 H         1 <0>         0.0657
     60 H20         0.9264  -10.6905   -2.9224 H         1 <0>         0.0579
     61 H21         2.2336  -10.6803   -1.7143 H         1 <0>         0.0602
     62 H22        -0.7549  -10.5641   -1.1041 H         1 <0>         0.0593
     63 H23         0.2892  -11.9926   -0.9106 H         1 <0>         0.0558
     64 H24        -0.0151  -10.8134    1.2494 H         1 <0>         0.0566
     65 H25         1.6838  -10.7520    0.7219 H         1 <0>         0.0592
     66 H26         0.9215   -8.5344    1.5279 H         1 <0>         0.0595
     67 H27        -0.3857   -8.5446    0.3199 H         1 <0>         0.0595
     68 H28         4.8771   -6.2092   -2.8575 H         1 <0>         0.0858
     69 H29         4.9630   -4.8359   -1.7283 H         1 <0>         0.0782
     70 H30         7.3187   -5.6899   -3.2315 H         1 <0>         0.0634
     71 H31         7.4288   -4.5202   -1.8944 H         1 <0>         0.0718
     72 H32         8.4871   -5.9512   -1.9144 H         1 <0>         0.0568
     73 H33         8.4943   -7.9488   -0.9598 H         1 <0>         0.3992
     74 H34         7.1799  -10.4458   -1.0764 H         1 <0>         0.0662
     75 H35         7.8076  -10.0661   -2.6982 H         1 <0>         0.0664
     76 H36        10.0786   -9.7658   -1.7489 H         1 <0>         0.0685
     77 H37         9.4509  -10.1455   -0.1272 H         1 <0>         0.0684
     78 H38         8.7471  -12.3857   -0.9241 H         1 <0>         0.0650
     79 H39         9.3748  -12.0059   -2.5458 H         1 <0>         0.0651
     80 H40        11.6458  -11.7057   -1.5965 H         1 <0>         0.0542
     81 H41        11.0181  -12.0854    0.0252 H         1 <0>         0.0541
     82 H42        11.0162  -13.3329   -1.2444 H         1 <0>         0.0552
     83 H43         4.0410   -5.1681    0.5160 H         1 <0>         0.3670
     84 H44        -0.9575   -2.3245   -6.0082 H         1 <0>         0.0708
     85 H45        -1.5586   -0.8684   -5.1796 H         1 <0>         0.0709
     86 H46        -0.0725    0.5407   -6.5776 H         1 <0>         0.0797
     87 H47         0.5287   -0.9154   -7.4062 H         1 <0>         0.0821
     88 H48        -0.8985   -2.1543   -8.9335 H         1 <0>         0.1212
     89 H49        -2.8075   -2.0590  -10.4859 H         1 <0>         0.1185
     90 H50        -4.4771   -0.2614  -10.2753 H         1 <0>         0.1169
     91 H51        -4.2381    1.4404   -8.5118 H         1 <0>         0.1185
     92 H52        -2.3337    1.3403   -6.9542 H         1 <0>         0.1214
@<TRIPOS>BOND
     1    1    2 1
     2    1   45 1
     3    1   46 1
     4    1   47 1
     5    2    3 1
     6    2   48 1
     7    2   49 1
     8    3    4 1
     9    3   50 1
    10    3   51 1
    11    4    5 1
    12    4   52 1
    13    4   53 1
    14    5    6 1
    15    5    7 1
    16    5   33 1
    17    7    8 2
    18    7    9 am
    19    9   10 1
    20    9   54 1
    21   10   11 1
    22   10   12 1
    23   10   19 1
    24   12   13 1
    25   12   55 1
    26   12   56 1
    27   13   18 1
    28   13   14 1
    29   13   57 1
    30   14   15 1
    31   14   58 1
    32   14   59 1
    33   15   16 1
    34   15   60 1
    35   15   61 1
    36   16   17 1
    37   16   62 1
    38   16   63 1
    39   17   18 1
    40   17   64 1
    41   17   65 1
    42   18   66 1
    43   18   67 1
    44   19   20 1
    45   19   21 1
    46   19   32 1
    47   21   22 1
    48   21   68 1
    49   21   69 1
    50   22   23 1
    51   22   24 1
    52   22   25 1
    53   24   70 1
    54   24   71 1
    55   24   72 1
    56   25   26 2
    57   25   27 am
    58   27   28 1
    59   27   73 1
    60   28   29 1
    61   28   74 1
    62   28   75 1
    63   29   30 1
    64   29   76 1
    65   29   77 1
    66   30   31 1
    67   30   78 1
    68   30   79 1
    69   31   80 1
    70   31   81 1
    71   31   82 1
    72   32   83 1
    73   33   34 1
    74   34   35 2
    75   34   36 1
    76   34   44 1
    77   36   37 1
    78   36   84 1
    79   36   85 1
    80   37   38 1
    81   37   86 1
    82   37   87 1
    83   38   43 ar
    84   38   39 ar
    85   39   40 ar
    86   39   88 1
    87   40   41 ar
    88   40   89 1
    89   41   42 ar
    90   41   90 1
    91   42   43 ar
    92   42   91 1
    93   43   92 1
@<TRIPOS>MOLECULE
CHEMBL287139
   72    76     0     0     0
SMALL
USER_CHARGES

@<TRIPOS>ATOM
      1 C1         -0.0167    1.3784    0.0096 C.ar      1 <0>        -0.1562
      2 C2          1.1698    2.0883    0.0021 C.ar      1 <0>        -0.0793
      3 C3          2.3773    1.4175   -0.0134 C.ar      1 <0>        -0.1518
      4 C4          2.3989    0.0304   -0.0210 C.ar      1 <0>         0.1265
      5 C5          1.2070   -0.6796   -0.0130 C.ar      1 <0>        -0.2102
      6 C6          0.0021   -0.0041    0.0020 C.ar      1 <0>        -0.0801
      7 O1          3.5855   -0.6319   -0.0368 O.3       1 <0>        -0.3139
      8 C7          3.5315   -2.0598   -0.0438 C.3       1 <0>         0.0633
      9 C8          4.9536   -2.6239   -0.0615 C.3       1 <0>        -0.1184
     10 C9          4.8957   -4.1528   -0.0690 C.3       1 <0>         0.0663
     11 O2          6.2239   -4.6797   -0.0855 O.3       1 <0>        -0.3793
     12 C10         6.2828   -6.1074   -0.0937 C.3       1 <0>         0.0981
     13 C11         7.7231   -6.5507   -0.1109 C.ar      1 <0>        -0.0779
     14 C12         8.3730   -6.7422   -1.3158 C.ar      1 <0>        -0.0897
     15 C13         9.6941   -7.1488   -1.3316 C.ar      1 <0>        -0.1004
     16 C14        10.3654   -7.3635   -0.1424 C.ar      1 <0>        -0.0792
     17 C15         9.7158   -7.1711    1.0625 C.ar      1 <0>        -0.1221
     18 C16         8.3959   -6.7604    1.0783 C.ar      1 <0>        -0.0927
     19 C17        11.8053   -7.8077   -0.1596 C.3       1 <0>        -0.0542
     20 H1         12.1442   -7.9057   -1.1910 H         1 <0>         0.1054
     21 C18        12.6692   -6.7729    0.5671 C.3       1 <0>        -0.1393
     22 C19        14.1163   -7.2681    0.6154 C.3       1 <0>        -0.0098
     23 N1         14.1757   -8.5475    1.3323 N.4       1 <0>        -0.4995
     24 C20        13.4079   -9.5635    0.6025 C.3       1 <0>        -0.0389
     25 C21        11.9333   -9.1577    0.5520 C.3       1 <0>         0.0785
     26 H2         11.5455   -9.0723    1.5671 H         1 <0>         0.0862
     27 O3         11.1889  -10.1462   -0.1626 O.3       1 <0>        -0.3429
     28 C22        10.6671  -11.1899    0.6624 C.3       1 <0>         0.1004
     29 C23         9.9044  -12.1706   -0.1905 C.ar      1 <0>        -0.0986
     30 C24         8.5430  -11.9725   -0.4138 C.ar      1 <0>        -0.1001
     31 C25         7.8250  -12.8394   -1.1787 C.ar      1 <0>        -0.1000
     32 C26         8.4627  -13.9519   -1.7538 C.ar      1 <0>        -0.0434
     33 C27         7.7546  -14.8684   -2.5498 C.ar      1 <0>        -0.1085
     34 C28         8.4057  -15.9341   -3.0907 C.ar      1 <0>        -0.1069
     35 C29         9.7671  -16.1320   -2.8676 C.ar      1 <0>        -0.1106
     36 C30        10.4850  -15.2654   -2.1024 C.ar      1 <0>        -0.1074
     37 C31         9.8471  -14.1531   -1.5270 C.ar      1 <0>        -0.0570
     38 C32        10.5565  -13.2335   -0.7356 C.ar      1 <0>        -0.0769
     39 H3         -0.9596    1.9047    0.0260 H         1 <0>         0.1258
     40 H4          1.1525    3.1682    0.0080 H         1 <0>         0.1313
     41 H5          3.3038    1.9724   -0.0200 H         1 <0>         0.1309
     42 H6          1.2211   -1.7595   -0.0193 H         1 <0>         0.1261
     43 H7         -0.9260   -0.5563    0.0082 H         1 <0>         0.1259
     44 H8          3.0134   -2.4083    0.8497 H         1 <0>         0.0649
     45 H9          2.9951   -2.3988   -0.9302 H         1 <0>         0.0652
     46 H10         5.4716   -2.2755   -0.9550 H         1 <0>         0.0839
     47 H11         5.4899   -2.2850    0.8248 H         1 <0>         0.0834
     48 H12         4.3777   -4.5012    0.8245 H         1 <0>         0.0553
     49 H13         4.3594   -4.4918   -0.9554 H         1 <0>         0.0558
     50 H14         5.7936   -6.4964    0.7993 H         1 <0>         0.0615
     51 H15         5.7753   -6.4869   -0.9806 H         1 <0>         0.0624
     52 H16         7.8485   -6.5744   -2.2449 H         1 <0>         0.1279
     53 H17        10.2016   -7.2991   -2.2730 H         1 <0>         0.1255
     54 H18        10.2402   -7.3392    1.9916 H         1 <0>         0.1166
     55 H19         7.8895   -6.6065    2.0197 H         1 <0>         0.1262
     56 H20        12.6269   -5.8238    0.0328 H         1 <0>         0.1232
     57 H21        12.2970   -6.6367    1.5825 H         1 <0>         0.0936
     58 H22        14.4875   -7.4037   -0.4004 H         1 <0>         0.1348
     59 H23        14.7341   -6.5335    1.1320 H         1 <0>         0.1396
     60 H24        15.1370   -8.8445    1.4090 H         1 <0>         0.4356
     61 H25        13.7943   -9.6503   -0.4130 H         1 <0>         0.1416
     62 H26        13.5028  -10.5237    1.1096 H         1 <0>         0.1345
     63 H27        11.4888  -11.7041    1.1609 H         1 <0>         0.0607
     64 H28         9.9991  -10.7623    1.4101 H         1 <0>         0.0683
     65 H29         8.0505  -11.1184    0.0269 H         1 <0>         0.1225
     66 H30         6.7704  -12.6735   -1.3425 H         1 <0>         0.1311
     67 H31         6.6992  -14.7280   -2.7310 H         1 <0>         0.1308
     68 H32         7.8591  -16.6371   -3.7018 H         1 <0>         0.1282
     69 H33        10.2597  -16.9862   -3.3083 H         1 <0>         0.1275
     70 H34        11.5394  -15.4317   -1.9378 H         1 <0>         0.1276
     71 H35        11.6128  -13.3717   -0.5578 H         1 <0>         0.1250
     72 H36        13.7866   -8.4326    2.2562 H         1 <0>         0.4277
@<TRIPOS>BOND
     1    1    6 ar
     2    1    2 ar
     3    1   39 1
     4    2    3 ar
     5    2   40 1
     6    3    4 ar
     7    3   41 1
     8    4    5 ar
     9    4    7 1
    10    5    6 ar
    11    5   42 1
    12    6   43 1
    13    7    8 1
    14    8    9 1
    15    8   44 1
    16    8   45 1
    17    9   10 1
    18    9   46 1
    19    9   47 1
    20   10   11 1
    21   10   48 1
    22   10   49 1
    23   11   12 1
    24   12   13 1
    25   12   50 1
    26   12   51 1
    27   13   18 ar
    28   13   14 ar
    29   14   15 ar
    30   14   52 1
    31   15   16 ar
    32   15   53 1
    33   16   17 ar
    34   16   19 1
    35   17   18 ar
    36   17   54 1
    37   18   55 1
    38   19   20 1
    39   19   25 1
    40   19   21 1
    41   21   22 1
    42   21   56 1
    43   21   57 1
    44   22   23 1
    45   22   58 1
    46   22   59 1
    47   23   24 1
    48   23   60 1
    49   23   72 1
    50   24   25 1
    51   24   61 1
    52   24   62 1
    53   25   26 1
    54   25   27 1
    55   27   28 1
    56   28   29 1
    57   28   63 1
    58   28   64 1
    59   29   38 ar
    60   29   30 ar
    61   30   31 ar
    62   30   65 1
    63   31   32 ar
    64   31   66 1
    65   32   37 ar
    66   32   33 ar
    67   33   34 ar
    68   33   67 1
    69   34   35 ar
    70   34   68 1
    71   35   36 ar
    72   35   69 1
    73   36   37 ar
    74   36   70 1
    75   37   38 ar
    76   38   71 1
@<TRIPOS>MOLECULE
CHEMBL391463
   63    66     0     0     0
SMALL
USER_CHARGES

@<TRIPOS>ATOM
      1 C1          0.8933   -1.6713   -0.2829 C.3       1 <0>        -0.1528
      2 C2          0.1060   -0.3844   -0.0280 C.3       1 <0>        -0.1054
      3 C3         -1.3704   -0.6722   -0.1204 C.ar      1 <0>         0.2533
      4 C4         -2.0170   -0.6540   -1.3542 C.ar      1 <0>        -0.1854
      5 C5         -3.3966   -0.9293   -1.3873 C.ar      1 <0>         0.5393
      6 N1         -4.0253   -1.1943   -0.2479 N.ar      1 <0>        -0.5743
      7 C6         -3.3684   -1.2004    0.9024 C.ar      1 <0>         0.6659
      8 N2         -2.0685   -0.9509    0.9687 N.ar      1 <0>        -0.5691
      9 N3         -4.0587   -1.4811    2.0683 N.pl3     1 <0>        -0.7909
     10 N4         -4.0866   -0.9235   -2.5867 N.pl3     1 <0>        -0.7717
     11 C7         -1.2712   -0.3519   -2.5999 C.ar      1 <0>        -0.0607
     12 C8         -0.7739    0.9315   -2.8217 C.ar      1 <0>        -0.0857
     13 C9         -0.0848    1.2159   -3.9838 C.ar      1 <0>        -0.0970
     14 C10         0.1170    0.2253   -4.9314 C.ar      1 <0>         0.1115
     15 C11        -0.3686   -1.0627   -4.7099 C.ar      1 <0>         0.1134
     16 C12        -1.0617   -1.3523   -3.5478 C.ar      1 <0>        -0.1155
     17 N5         -0.1276   -2.0641   -5.6609 N.am      1 <0>        -0.5465
     18 C13         0.7479   -1.8270   -6.6600 C.2       1 <0>         0.5047
     19 O1          0.8880   -2.6371   -7.5519 O.2       1 <0>        -0.4767
     20 C14         1.5508   -0.5508   -6.6637 C.3       1 <0>         0.1587
     21 O2          0.7794    0.5048   -6.0866 O.3       1 <0>        -0.2851
     22 C15         1.9183   -0.1846   -8.1031 C.3       1 <0>        -0.1318
     23 C16         2.8104   -0.7485   -5.8603 C.ar      1 <0>        -0.1253
     24 C17         3.3977   -1.9980   -5.7921 C.ar      1 <0>        -0.1056
     25 C18         4.5531   -2.1794   -5.0552 C.ar      1 <0>        -0.1138
     26 C19         5.1214   -1.1111   -4.3868 C.ar      1 <0>        -0.1043
     27 C20         4.5346    0.1386   -4.4557 C.ar      1 <0>        -0.1161
     28 C21         3.3816    0.3209   -5.1962 C.ar      1 <0>        -0.0889
     29 C22        -0.8177   -3.3533   -5.5707 C.3       1 <0>         0.0956
     30 C23        -2.1296   -3.2854   -6.3550 C.3       1 <0>         0.1042
     31 N6         -2.8197   -4.5745   -6.2648 N.am      1 <0>        -0.7335
     32 C24        -4.0043   -4.7495   -6.8834 C.2       1 <0>         0.5127
     33 O3         -4.4990   -3.8397   -7.5147 O.2       1 <0>        -0.5378
     34 C25        -4.7142   -6.0755   -6.7906 C.3       1 <0>        -0.1739
     35 H1          1.9575   -1.4793   -0.1460 H         1 <0>         0.0879
     36 H2          0.5697   -2.4402    0.4187 H         1 <0>         0.0617
     37 H3          0.7137   -2.0112   -1.3028 H         1 <0>         0.0710
     38 H4          0.3408   -0.0058    0.9668 H         1 <0>         0.1045
     39 H5          0.3781    0.3618   -0.7744 H         1 <0>         0.1242
     40 H6         -5.0096   -1.6696    2.0356 H         1 <0>         0.4455
     41 H7         -3.5916   -1.4893    2.9185 H         1 <0>         0.4306
     42 H8         -3.6193   -0.7285   -3.4141 H         1 <0>         0.4320
     43 H9         -5.0375   -1.1144   -2.6001 H         1 <0>         0.4290
     44 H10        -0.9283    1.7046   -2.0836 H         1 <0>         0.1411
     45 H11         0.2971    2.2116   -4.1545 H         1 <0>         0.1525
     46 H12        -1.4424   -2.3485   -3.3776 H         1 <0>         0.1374
     47 H13         1.0080   -0.0432   -8.6857 H         1 <0>         0.0785
     48 H14         2.4988    0.7379   -8.1064 H         1 <0>         0.0875
     49 H15         2.5099   -0.9877   -8.5426 H         1 <0>         0.0972
     50 H16         2.9537   -2.8326   -6.3143 H         1 <0>         0.1236
     51 H17         5.0116   -3.1557   -5.0013 H         1 <0>         0.1284
     52 H18         6.0237   -1.2529   -3.8105 H         1 <0>         0.1285
     53 H19         4.9784    0.9732   -3.9333 H         1 <0>         0.1299
     54 H20         2.9251    1.2980   -5.2531 H         1 <0>         0.1308
     55 H21        -0.1839   -4.1348   -5.9897 H         1 <0>         0.1055
     56 H22        -1.0303   -3.5792   -4.5258 H         1 <0>         0.0930
     57 H23        -2.7634   -2.5039   -5.9360 H         1 <0>         0.0689
     58 H24        -1.9170   -3.0594   -7.3999 H         1 <0>         0.0784
     59 H25        -2.4241   -5.3022   -5.7599 H         1 <0>         0.4027
     60 H26        -5.3741   -6.0745   -5.9231 H         1 <0>         0.0953
     61 H27        -5.3022   -6.2369   -7.6941 H         1 <0>         0.0985
     62 H28        -3.9798   -6.8744   -6.6876 H         1 <0>         0.0825
     63 H29        -1.6224   -0.9692    1.8299 H         1 <0>         0.4418
@<TRIPOS>BOND
     1    1    2 1
     2    1   35 1
     3    1   36 1
     4    1   37 1
     5    2    3 1
     6    2   38 1
     7    2   39 1
     8    3    8 ar
     9    3    4 ar
    10    4    5 ar
    11    4   11 1
    12    5    6 ar
    13    5   10 1
    14    6    7 ar
    15    7    8 ar
    16    7    9 1
    17    8   63 1
    18    9   40 1
    19    9   41 1
    20   10   42 1
    21   10   43 1
    22   11   16 ar
    23   11   12 ar
    24   12   13 ar
    25   12   44 1
    26   13   14 ar
    27   13   45 1
    28   14   21 1
    29   14   15 ar
    30   15   16 ar
    31   15   17 1
    32   16   46 1
    33   17   18 am
    34   17   29 1
    35   18   19 2
    36   18   20 1
    37   20   21 1
    38   20   22 1
    39   20   23 1
    40   22   47 1
    41   22   48 1
    42   22   49 1
    43   23   28 ar
    44   23   24 ar
    45   24   25 ar
    46   24   50 1
    47   25   26 ar
    48   25   51 1
    49   26   27 ar
    50   26   52 1
    51   27   28 ar
    52   27   53 1
    53   28   54 1
    54   29   30 1
    55   29   55 1
    56   29   56 1
    57   30   31 1
    58   30   57 1
    59   30   58 1
    60   31   32 am
    61   31   59 1
    62   32   33 2
    63   32   34 1
    64   34   60 1
    65   34   61 1
    66   34   62 1
@<TRIPOS>MOLECULE
CHEMBL391463__1
   62    65     0     0     0
SMALL
USER_CHARGES

@<TRIPOS>ATOM
      1 C1         -0.0187    1.5258    0.0104 C.3       1 <0>        -0.1399
      2 C2          0.0021   -0.0041    0.0020 C.3       1 <0>        -0.0809
      3 C3          0.7074   -0.4901   -1.2379 C.ar      1 <0>         0.2690
      4 C4         -0.0072   -0.7231   -2.4107 C.ar      1 <0>        -0.2830
      5 C5          0.6976   -1.1764   -3.5411 C.ar      1 <0>         0.4976
      6 N1          2.0090   -1.3634   -3.4470 N.ar      1 <0>        -0.6303
      7 C6          2.6466   -1.1284   -2.3099 C.ar      1 <0>         0.6107
      8 N2          2.0147   -0.6959   -1.2283 N.ar      1 <0>        -0.6025
      9 N3          4.0135   -1.3353   -2.2514 N.pl3     1 <0>        -0.8192
     10 N4          0.0353   -1.4235   -4.7307 N.pl3     1 <0>        -0.8301
     11 C7         -1.4722   -0.4998   -2.4664 C.ar      1 <0>         0.0005
     12 C8         -2.3272   -1.2811   -1.6903 C.ar      1 <0>        -0.0989
     13 C9         -3.6917   -1.0786   -1.7457 C.ar      1 <0>        -0.0980
     14 C10        -4.2149   -0.0960   -2.5708 C.ar      1 <0>         0.0832
     15 C11        -3.3639    0.6956   -3.3409 C.ar      1 <0>         0.1047
     16 C12        -1.9956    0.4952   -3.2904 C.ar      1 <0>        -0.1249
     17 N5         -3.9037    1.7091   -4.1450 N.am      1 <0>        -0.5422
     18 C13        -5.2021    2.0458   -3.9977 C.2       1 <0>         0.5056
     19 O1         -5.7146    2.8415   -4.7563 O.2       1 <0>        -0.4934
     20 C14        -6.0134    1.4287   -2.8867 C.3       1 <0>         0.1566
     21 O2         -5.5601    0.0954   -2.6431 O.3       1 <0>        -0.2899
     22 C15        -7.4890    1.3991   -3.2897 C.3       1 <0>        -0.1278
     23 C16        -5.8532    2.2497   -1.6331 C.ar      1 <0>        -0.1196
     24 C17        -5.6258    3.6103   -1.7224 C.ar      1 <0>        -0.1064
     25 C18        -5.4789    4.3634   -0.5725 C.ar      1 <0>        -0.1161
     26 C19        -5.5598    3.7560    0.6666 C.ar      1 <0>        -0.1073
     27 C20        -5.7880    2.3955    0.7558 C.ar      1 <0>        -0.1168
     28 C21        -5.9392    1.6431   -0.3939 C.ar      1 <0>        -0.0867
     29 C22        -3.0678    2.3951   -5.1334 C.3       1 <0>         0.0964
     30 C23        -3.1433    1.6522   -6.4688 C.3       1 <0>         0.1052
     31 N6         -2.3074    2.3381   -7.4572 N.am      1 <0>        -0.7304
     32 C24        -2.2195    1.8593   -8.7140 C.2       1 <0>         0.5122
     33 O3         -2.8324    0.8606   -9.0267 O.2       1 <0>        -0.5412
     34 C25        -1.3597    2.5649   -9.7307 C.3       1 <0>        -0.1728
     35 H1          1.0039    1.9031    0.0027 H         1 <0>         0.0585
     36 H2         -0.5459    1.8868   -0.8726 H         1 <0>         0.0544
     37 H3         -0.5289    1.8773    0.9072 H         1 <0>         0.0648
     38 H4          0.5293   -0.3651    0.8851 H         1 <0>         0.0872
     39 H5         -1.0205   -0.3814    0.0098 H         1 <0>         0.0889
     40 H6          4.4908   -1.6479   -3.0358 H         1 <0>         0.4139
     41 H7          4.4945   -1.1676   -1.4258 H         1 <0>         0.4159
     42 H8         -0.9228   -1.2844   -4.7904 H         1 <0>         0.4120
     43 H9          0.5292   -1.7357   -5.5050 H         1 <0>         0.4078
     44 H10        -1.9214   -2.0462   -1.0450 H         1 <0>         0.1360
     45 H11        -4.3521   -1.6870   -1.1456 H         1 <0>         0.1427
     46 H12        -1.3361    1.1048   -3.8902 H         1 <0>         0.1315
     47 H13        -7.6059    0.8071   -4.1974 H         1 <0>         0.0757
     48 H14        -8.0761    0.9530   -2.4869 H         1 <0>         0.0836
     49 H15        -7.8364    2.4161   -3.4720 H         1 <0>         0.0930
     50 H16        -5.5626    4.0849   -2.6905 H         1 <0>         0.1228
     51 H17        -5.3005    5.4263   -0.6423 H         1 <0>         0.1259
     52 H18        -5.4442    4.3442    1.5649 H         1 <0>         0.1261
     53 H19        -5.8509    1.9209    1.7239 H         1 <0>         0.1282
     54 H20        -6.1213    0.5809   -0.3241 H         1 <0>         0.1307
     55 H21        -3.4249    3.4165   -5.2652 H         1 <0>         0.1007
     56 H22        -2.0349    2.4134   -4.7857 H         1 <0>         0.0950
     57 H23        -2.7862    0.6308   -6.3371 H         1 <0>         0.0716
     58 H24        -4.1762    1.6339   -6.8165 H         1 <0>         0.0759
     59 H25        -1.8173    3.1369   -7.2072 H         1 <0>         0.4023
     60 H26        -0.3498    2.1559   -9.6991 H         1 <0>         0.0954
     61 H27        -1.7798    2.4189  -10.7259 H         1 <0>         0.0956
     62 H28        -1.3275    3.6303   -9.5027 H         1 <0>         0.0810
@<TRIPOS>BOND
     1    1    2 1
     2    1   35 1
     3    1   36 1
     4    1   37 1
     5    2    3 1
     6    2   38 1
     7    2   39 1
     8    3    8 ar
     9    3    4 ar
    10    4    5 ar
    11    4   11 1
    12    5    6 ar
    13    5   10 1
    14    6    7 ar
    15    7    8 ar
    16    7    9 1
    17    9   40 1
    18    9   41 1
    19   10   42 1
    20   10   43 1
    21   11   16 ar
    22   11   12 ar
    23   12   13 ar
    24   12   44 1
    25   13   14 ar
    26   13   45 1
    27   14   21 1
    28   14   15 ar
    29   15   16 ar
    30   15   17 1
    31   16   46 1
    32   17   18 am
    33   17   29 1
    34   18   19 2
    35   18   20 1
    36   20   21 1
    37   20   22 1
    38   20   23 1
    39   22   47 1
    40   22   48 1
    41   22   49 1
    42   23   28 ar
    43   23   24 ar
    44   24   25 ar
    45   24   50 1
    46   25   26 ar
    47   25   51 1
    48   26   27 ar
    49   26   52 1
    50   27   28 ar
    51   27   53 1
    52   28   54 1
    53   29   30 1
    54   29   55 1
    55   29   56 1
    56   30   31 1
    57   30   57 1
    58   30   58 1
    59   31   32 am
    60   31   59 1
    61   32   33 2
    62   32   34 1
    63   34   60 1
    64   34   61 1
    65   34   62 1
@<TRIPOS>MOLECULE
CHEMBL54458
   82    85     0     0     0
SMALL
USER_CHARGES

@<TRIPOS>ATOM
      1 C1         -0.0187    1.5258    0.0104 C.3       1 <0>        -0.1575
      2 C2          0.0021   -0.0041    0.0020 C.3       1 <0>        -0.1229
      3 C3          0.7421   -0.5109    1.2415 C.3       1 <0>        -0.1476
      4 C4         -1.4333   -0.5336    0.0129 C.3       1 <0>         0.1113
      5 H1         -1.4190   -1.6203    0.0965 H         1 <0>         0.1001
      6 C5         -2.1352   -0.1312   -1.2857 C.3       1 <0>        -0.1734
      7 C6         -3.5271   -0.7649   -1.3306 C.3       1 <0>         0.0976
      8 H2         -4.0812   -0.4887   -0.4334 H         1 <0>         0.1178
      9 C7         -4.2760   -0.2636   -2.5670 C.3       1 <0>         0.1124
     10 H3         -4.3720    0.8211   -2.5187 H         1 <0>         0.1046
     11 C8         -5.6679   -0.8973   -2.6119 C.3       1 <0>        -0.1210
     12 C9         -6.4617   -0.3026   -3.7769 C.3       1 <0>        -0.0831
     13 C10        -6.7029    1.1866   -3.5222 C.3       1 <0>        -0.1174
     14 C11        -7.4967    1.7812   -4.6872 C.3       1 <0>        -0.1183
     15 C12        -8.8407    1.0604   -4.8092 C.3       1 <0>        -0.1230
     16 C13        -8.5994   -0.4288   -5.0640 C.3       1 <0>        -0.1193
     17 C14        -7.8057   -1.0235   -3.8990 C.3       1 <0>        -0.1156
     18 N1         -3.5314   -0.6348   -3.7728 N.am      1 <0>        -0.7144
     19 C15        -2.5327    0.1535   -4.2174 C.2       1 <0>         0.5093
     20 O1         -2.2505    1.1701   -3.6193 O.2       1 <0>        -0.5084
     21 C16        -1.7667   -0.2283   -5.4578 C.3       1 <0>         0.1271
     22 H4         -2.4514   -0.2881   -6.3037 H         1 <0>         0.1258
     23 C17        -1.0979   -1.5880   -5.2459 C.3       1 <0>        -0.0714
     24 C18        -0.4347   -2.0265   -6.5261 C.2       1 <0>         0.0405
     25 C19        -1.0326   -2.6696   -7.5471 C.2       1 <0>         0.0550
     26 N2         -0.0734   -2.8748   -8.5019 N.pl3     1 <0>        -0.4986
     27 H5         -0.1976   -3.3152   -9.3572 H         1 <0>         0.4667
     28 C20         1.0781   -2.3497   -8.0307 C.cat     1 <0>         0.3068
     29 N3          0.8533   -1.8397   -6.8507 N.pl3     1 <0>        -0.4734
     30 N4         -0.7420    0.7828   -5.7295 N.am      1 <0>        -0.7129
     31 C21        -0.2837    0.9574   -6.9849 C.2       1 <0>         0.5000
     32 O2         -0.7196    0.2775   -7.8896 O.2       1 <0>        -0.5259
     33 C22         0.7704    1.9975   -7.2644 C.3       1 <0>         0.1365
     34 C23         0.1232    3.3828   -7.4260 C.3       1 <0>        -0.0702
     35 C24         0.4725    3.8029   -8.8360 C.ar      1 <0>        -0.1695
     36 C25         0.1655    4.9501   -9.5422 C.ar      1 <0>        -0.0594
     37 C26         0.6073    5.1039  -10.8430 C.ar      1 <0>        -0.1584
     38 C27         1.3582    4.1060  -11.4370 C.ar      1 <0>        -0.0726
     39 C28         1.6671    2.9597  -10.7368 C.ar      1 <0>        -0.1706
     40 C29         1.2244    2.7968   -9.4221 C.ar      1 <0>         0.1887
     41 N5          1.4237    1.7271   -8.5479 N.pl3     1 <0>        -0.7257
     42 O3         -3.4013   -2.1869   -1.3939 O.3       1 <0>        -0.5461
     43 O4         -2.1371    0.0205    1.1263 O.3       1 <0>        -0.5553
     44 H6          1.0039    1.9031    0.0027 H         1 <0>         0.0586
     45 H7         -0.5459    1.8868   -0.8726 H         1 <0>         0.0599
     46 H8         -0.5289    1.8773    0.9072 H         1 <0>         0.0589
     47 H9          0.5123   -0.3556   -0.8948 H         1 <0>         0.0675
     48 H10         0.2319   -0.1594    2.1383 H         1 <0>         0.0639
     49 H11         0.7568   -1.6008    1.2356 H         1 <0>         0.0533
     50 H12         1.7647   -0.1336    1.2338 H         1 <0>         0.0536
     51 H13        -2.2286    0.9540   -1.3270 H         1 <0>         0.0897
     52 H14        -1.5503   -0.4783   -2.1375 H         1 <0>         0.0630
     53 H15        -5.5725   -1.9744   -2.7495 H         1 <0>         0.0776
     54 H16        -6.1894   -0.6953   -1.6763 H         1 <0>         0.0854
     55 H17        -5.8977   -0.4264   -4.7015 H         1 <0>         0.0656
     56 H18        -7.2669    1.3103   -2.5976 H         1 <0>         0.0652
     57 H19        -5.7454    1.7001   -3.4353 H         1 <0>         0.0595
     58 H20        -7.6686    2.8422   -4.5057 H         1 <0>         0.0620
     59 H21        -6.9328    1.6575   -5.6117 H         1 <0>         0.0565
     60 H22        -9.4046    1.1842   -3.8847 H         1 <0>         0.0635
     61 H23        -9.4062    1.4841   -5.6392 H         1 <0>         0.0617
     62 H24        -9.5569   -0.9424   -5.1509 H         1 <0>         0.0633
     63 H25        -8.0355   -0.5526   -5.9885 H         1 <0>         0.0579
     64 H26        -7.6338   -2.0844   -4.0804 H         1 <0>         0.0614
     65 H27        -8.3696   -0.8997   -2.9744 H         1 <0>         0.0652
     66 H28        -3.7571   -1.4479   -4.2512 H         1 <0>         0.4017
     67 H29        -0.3489   -1.5057   -4.4583 H         1 <0>         0.1066
     68 H30        -1.8502   -2.3218   -4.9566 H         1 <0>         0.1249
     69 H31        -2.0695   -2.9666   -7.6020 H         1 <0>         0.2224
     70 H32         2.0268   -2.3483   -8.5466 H         1 <0>         0.2614
     71 H33        -0.3933    1.3267   -5.0059 H         1 <0>         0.4187
     72 H34         1.5070    2.0140   -6.4611 H         1 <0>         0.1006
     73 H35        -0.9580    3.3138   -7.3065 H         1 <0>         0.0870
     74 H36         0.5424    4.0848   -6.7051 H         1 <0>         0.1002
     75 H37        -0.4213    5.7283   -9.0769 H         1 <0>         0.1239
     76 H38         0.3669    6.0013  -11.3938 H         1 <0>         0.1279
     77 H39         1.7035    4.2251  -12.4534 H         1 <0>         0.1279
     78 H40         2.2536    2.1841  -11.2067 H         1 <0>         0.1175
     79 H41         1.9221    0.9222   -8.7591 H         1 <0>         0.4072
     80 H42        -2.9179   -2.5049   -2.1687 H         1 <0>         0.3604
     81 H43        -2.1892    0.9861    1.1175 H         1 <0>         0.3719
     82 H44         1.5138   -1.3970   -6.2952 H         1 <0>         0.4581
@<TRIPOS>BOND
     1    1    2 1
     2    1   44 1
     3    1   45 1
     4    1   46 1
     5    2    3 1
     6    2    4 1
     7    2   47 1
     8    3   48 1
     9    3   49 1
    10    3   50 1
    11    4    5 1
    12    4    6 1
    13    4   43 1
    14    6    7 1
    15    6   51 1
    16    6   52 1
    17    7    8 1
    18    7    9 1
    19    7   42 1
    20    9   10 1
    21    9   11 1
    22    9   18 1
    23   11   12 1
    24   11   53 1
    25   11   54 1
    26   12   17 1
    27   12   13 1
    28   12   55 1
    29   13   14 1
    30   13   56 1
    31   13   57 1
    32   14   15 1
    33   14   58 1
    34   14   59 1
    35   15   16 1
    36   15   60 1
    37   15   61 1
    38   16   17 1
    39   16   62 1
    40   16   63 1
    41   17   64 1
    42   17   65 1
    43   18   19 am
    44   18   66 1
    45   19   20 2
    46   19   21 1
    47   21   22 1
    48   21   23 1
    49   21   30 1
    50   23   24 1
    51   23   67 1
    52   23   68 1
    53   24   29 1
    54   24   25 2
    55   25   26 1
    56   25   69 1
    57   26   27 1
    58   26   28 1
    59   28   29 2
    60   28   70 1
    61   29   82 1
    62   30   31 am
    63   30   71 1
    64   31   32 2
    65   31   33 1
    66   33   41 1
    67   33   34 1
    68   33   72 1
    69   34   35 1
    70   34   73 1
    71   34   74 1
    72   35   40 ar
    73   35   36 ar
    74   36   37 ar
    75   36   75 1
    76   37   38 ar
    77   37   76 1
    78   38   39 ar
    79   38   77 1
    80   39   40 ar
    81   39   78 1
    82   40   41 1
    83   41   79 1
    84   42   80 1
    85   43   81 1
@<TRIPOS>MOLECULE
CHEMBL54458__1
   81    84     0     0     0
SMALL
USER_CHARGES

@<TRIPOS>ATOM
      1 C1         -0.0187    1.5258    0.0104 C.3       1 <0>        -0.1448
      2 C2          0.0021   -0.0041    0.0020 C.3       1 <0>        -0.1280
      3 C3          0.7421   -0.5109    1.2415 C.3       1 <0>        -0.1495
      4 C4         -1.4333   -0.5336    0.0129 C.3       1 <0>         0.1140
      5 H1         -1.9435   -0.1821    0.9097 H         1 <0>         0.1049
      6 C5         -1.4126   -2.0635    0.0045 C.3       1 <0>        -0.1865
      7 C6         -2.8413   -2.5937    0.1410 C.3       1 <0>         0.1039
      8 H2         -3.4650   -2.1632   -0.6424 H         1 <0>         0.1190
      9 C7         -2.8345   -4.1178    0.0076 C.3       1 <0>         0.1136
     10 H3         -2.4357   -4.3954   -0.9680 H         1 <0>         0.1012
     11 C8         -4.2632   -4.6480    0.1442 C.3       1 <0>        -0.1221
     12 C9         -4.2743   -6.1562   -0.1127 C.3       1 <0>        -0.0810
     13 C10        -3.8783   -6.4291   -1.5652 C.3       1 <0>        -0.1044
     14 C11        -3.8894   -7.9373   -1.8221 C.3       1 <0>        -0.1104
     15 C12        -5.2931   -8.4884   -1.5640 C.3       1 <0>        -0.1206
     16 C13        -5.6891   -8.2156   -0.1116 C.3       1 <0>        -0.1166
     17 C14        -5.6780   -6.7073    0.1454 C.3       1 <0>        -0.1157
     18 N1         -1.9962   -4.6965    1.0606 N.am      1 <0>        -0.7191
     19 C15        -1.4271   -5.9049    0.8810 C.2       1 <0>         0.5131
     20 O1         -1.6090   -6.5133   -0.1523 O.2       1 <0>        -0.5140
     21 C16        -0.5648   -6.5001    1.9641 C.3       1 <0>         0.1389
     22 H4         -1.1540   -6.6191    2.8734 H         1 <0>         0.1204
     23 C17         0.6191   -5.5715    2.2414 C.3       1 <0>        -0.0372
     24 C18         1.4130   -6.1039    3.4065 C.2       1 <0>         0.0098
     25 C19         2.7323   -6.3739    3.4078 C.2       1 <0>        -0.0610
     26 N2          3.0412   -6.8338    4.6595 N.pl3     1 <0>        -0.5719
     27 H5          3.9169   -7.1115    4.9708 H         1 <0>         0.4165
     28 C20         1.8991   -6.8287    5.3800 C.2       1 <0>         0.1958
     29 N3          0.9305   -6.3863    4.6257 N.2       1 <0>        -0.4511
     30 N4         -0.0682   -7.8080    1.5294 N.am      1 <0>        -0.7116
     31 C21         0.2785   -8.7352    2.4441 C.2       1 <0>         0.4954
     32 O2          0.1793   -8.4868    3.6270 O.2       1 <0>        -0.4886
     33 C22         0.7893  -10.0806    1.9969 C.3       1 <0>         0.1376
     34 C23        -0.3863  -11.0124    1.6598 C.3       1 <0>        -0.0685
     35 C24        -0.2421  -12.1692    2.6231 C.ar      1 <0>        -0.1727
     36 C25        -1.0056  -13.3083    2.7921 C.ar      1 <0>        -0.0592
     37 C26        -0.6647  -14.2355    3.7590 C.ar      1 <0>        -0.1715
     38 C27         0.4435  -14.0205    4.5580 C.ar      1 <0>        -0.0737
     39 C28         1.2082  -12.8858    4.3933 C.ar      1 <0>        -0.1779
     40 C29         0.8704  -11.9442    3.4185 C.ar      1 <0>         0.2023
     41 N5          1.5025  -10.7433    3.0922 N.pl3     1 <0>        -0.7185
     42 O3         -3.3642   -2.2297    1.4201 O.3       1 <0>        -0.5477
     43 O4         -2.1245   -0.0603   -1.1448 O.3       1 <0>        -0.5567
     44 H6          1.0039    1.9031    0.0027 H         1 <0>         0.0528
     45 H7         -0.5459    1.8868   -0.8726 H         1 <0>         0.0613
     46 H8         -0.5289    1.8773    0.9072 H         1 <0>         0.0548
     47 H9          0.5123   -0.3556   -0.8948 H         1 <0>         0.0697
     48 H10         0.7568   -1.6008    1.2356 H         1 <0>         0.0569
     49 H11         1.7647   -0.1336    1.2338 H         1 <0>         0.0571
     50 H12         0.2319   -0.1594    2.1383 H         1 <0>         0.0578
     51 H13        -0.9823   -2.4159   -0.9330 H         1 <0>         0.0766
     52 H14        -0.8102   -2.4233    0.8386 H         1 <0>         0.0801
     53 H15        -4.6303   -4.4482    1.1509 H         1 <0>         0.0702
     54 H16        -4.9062   -4.1510   -0.5823 H         1 <0>         0.0711
     55 H17        -3.5641   -6.6438    0.5551 H         1 <0>         0.0744
     56 H18        -4.5885   -5.9416   -2.2331 H         1 <0>         0.0454
     57 H19        -2.8783   -6.0365   -1.7491 H         1 <0>         0.0768
     58 H20        -3.6073   -8.1317   -2.8569 H         1 <0>         0.0526
     59 H21        -3.1792   -8.4249   -1.1542 H         1 <0>         0.0633
     60 H22        -6.0033   -8.0009   -2.2319 H         1 <0>         0.0571
     61 H23        -5.3010   -9.5629   -1.7471 H         1 <0>         0.0559
     62 H24        -6.6891   -8.6081    0.0723 H         1 <0>         0.0568
     63 H25        -4.9789   -8.7031    0.5563 H         1 <0>         0.0575
     64 H26        -5.9601   -6.5129    1.1801 H         1 <0>         0.0555
     65 H27        -6.3882   -6.2198   -0.5225 H         1 <0>         0.0581
     66 H28        -1.8508   -4.2099    1.8870 H         1 <0>         0.3962
     67 H29         1.2572   -5.5228    1.3590 H         1 <0>         0.0795
     68 H30         0.2504   -4.5736    2.4787 H         1 <0>         0.0819
     69 H31         3.4153   -6.2516    2.5801 H         1 <0>         0.1659
     70 H32         1.8039   -7.1360    6.4110 H         1 <0>         0.1993
     71 H33         0.0111   -8.0067    0.5833 H         1 <0>         0.4065
     72 H34         1.4441   -9.9677    1.1329 H         1 <0>         0.0934
     73 H35        -1.3352  -10.5005    1.8195 H         1 <0>         0.0859
     74 H36        -0.3107  -11.3630    0.6305 H         1 <0>         0.0933
     75 H37        -1.8709  -13.4745    2.1676 H         1 <0>         0.1198
     76 H38        -1.2621  -15.1257    3.8899 H         1 <0>         0.1223
     77 H39         0.7103  -14.7442    5.3140 H         1 <0>         0.1229
     78 H40         2.0722  -12.7238    5.0208 H         1 <0>         0.1156
     79 H41         2.2978  -10.3978    3.5269 H         1 <0>         0.4119
     80 H42        -2.8577   -2.5792    2.1660 H         1 <0>         0.3667
     81 H43        -1.7251   -0.3356   -1.9813 H         1 <0>         0.3713
@<TRIPOS>BOND
     1    1    2 1
     2    1   44 1
     3    1   45 1
     4    1   46 1
     5    2    3 1
     6    2    4 1
     7    2   47 1
     8    3   48 1
     9    3   49 1
    10    3   50 1
    11    4    5 1
    12    4    6 1
    13    4   43 1
    14    6    7 1
    15    6   51 1
    16    6   52 1
    17    7    8 1
    18    7    9 1
    19    7   42 1
    20    9   10 1
    21    9   11 1
    22    9   18 1
    23   11   12 1
    24   11   53 1
    25   11   54 1
    26   12   17 1
    27   12   13 1
    28   12   55 1
    29   13   14 1
    30   13   56 1
    31   13   57 1
    32   14   15 1
    33   14   58 1
    34   14   59 1
    35   15   16 1
    36   15   60 1
    37   15   61 1
    38   16   17 1
    39   16   62 1
    40   16   63 1
    41   17   64 1
    42   17   65 1
    43   18   19 am
    44   18   66 1
    45   19   20 2
    46   19   21 1
    47   21   22 1
    48   21   23 1
    49   21   30 1
    50   23   24 1
    51   23   67 1
    52   23   68 1
    53   24   29 1
    54   24   25 2
    55   25   26 1
    56   25   69 1
    57   26   27 1
    58   26   28 1
    59   28   29 2
    60   28   70 1
    61   30   31 am
    62   30   71 1
    63   31   32 2
    64   31   33 1
    65   33   41 1
    66   33   34 1
    67   33   72 1
    68   34   35 1
    69   34   73 1
    70   34   74 1
    71   35   40 ar
    72   35   36 ar
    73   36   37 ar
    74   36   75 1
    75   37   38 ar
    76   37   76 1
    77   38   39 ar
    78   38   77 1
    79   39   40 ar
    80   39   78 1
    81   40   41 1
    82   41   79 1
    83   42   80 1
    84   43   81 1
@<TRIPOS>MOLECULE
CHEMBL54458__2
   81    84     0     0     0
SMALL
USER_CHARGES

@<TRIPOS>ATOM
      1 C1         -0.0187    1.5258    0.0104 C.3       1 <0>        -0.1450
      2 C2          0.0021   -0.0041    0.0020 C.3       1 <0>        -0.1284
      3 C3          0.7421   -0.5109    1.2415 C.3       1 <0>        -0.1491
      4 C4         -1.4333   -0.5336    0.0129 C.3       1 <0>         0.1143
      5 H1         -1.9435   -0.1821    0.9097 H         1 <0>         0.1044
      6 C5         -1.4126   -2.0635    0.0045 C.3       1 <0>        -0.1864
      7 C6         -2.8413   -2.5937    0.1410 C.3       1 <0>         0.1035
      8 H2         -3.4650   -2.1632   -0.6424 H         1 <0>         0.1205
      9 C7         -2.8345   -4.1178    0.0076 C.3       1 <0>         0.1134
     10 H3         -2.4357   -4.3954   -0.9680 H         1 <0>         0.1029
     11 C8         -4.2632   -4.6480    0.1442 C.3       1 <0>        -0.1222
     12 C9         -4.2743   -6.1562   -0.1127 C.3       1 <0>        -0.0809
     13 C10        -3.8783   -6.4291   -1.5652 C.3       1 <0>        -0.1049
     14 C11        -3.8894   -7.9373   -1.8221 C.3       1 <0>        -0.1106
     15 C12        -5.2931   -8.4884   -1.5640 C.3       1 <0>        -0.1209
     16 C13        -5.6891   -8.2156   -0.1116 C.3       1 <0>        -0.1167
     17 C14        -5.6780   -6.7073    0.1454 C.3       1 <0>        -0.1158
     18 N1         -1.9962   -4.6965    1.0606 N.am      1 <0>        -0.7195
     19 C15        -1.4271   -5.9049    0.8810 C.2       1 <0>         0.5127
     20 O1         -1.6090   -6.5133   -0.1523 O.2       1 <0>        -0.5062
     21 C16        -0.5648   -6.5001    1.9641 C.3       1 <0>         0.1362
     22 H4         -1.1540   -6.6191    2.8734 H         1 <0>         0.1102
     23 C17         0.6191   -5.5715    2.2414 C.3       1 <0>        -0.0487
     24 C18         1.4130   -6.1039    3.4065 C.2       1 <0>        -0.0164
     25 C19         2.3856   -7.0340    3.3571 C.2       1 <0>        -0.0046
     26 N2          2.8387   -7.2271    4.6047 N.2       1 <0>        -0.4858
     27 H5          0.6698   -5.0729    5.0723 H         1 <0>         0.4146
     28 C20         2.1838   -6.4521    5.4253 C.2       1 <0>         0.1935
     29 N3          1.2881   -5.7307    4.7175 N.pl3     1 <0>        -0.5599
     30 N4         -0.0682   -7.8080    1.5294 N.am      1 <0>        -0.7130
     31 C21         0.2785   -8.7352    2.4441 C.2       1 <0>         0.5052
     32 O2          0.1793   -8.4868    3.6270 O.2       1 <0>        -0.5020
     33 C22         0.7893  -10.0806    1.9969 C.3       1 <0>         0.1383
     34 C23        -0.3863  -11.0124    1.6598 C.3       1 <0>        -0.0681
     35 C24        -0.2421  -12.1692    2.6231 C.ar      1 <0>        -0.1767
     36 C25        -1.0056  -13.3083    2.7921 C.ar      1 <0>        -0.0596
     37 C26        -0.6647  -14.2355    3.7590 C.ar      1 <0>        -0.1734
     38 C27         0.4435  -14.0205    4.5580 C.ar      1 <0>        -0.0732
     39 C28         1.2082  -12.8858    4.3933 C.ar      1 <0>        -0.1769
     40 C29         0.8704  -11.9442    3.4185 C.ar      1 <0>         0.2045
     41 N5          1.5025  -10.7433    3.0922 N.pl3     1 <0>        -0.7156
     42 O3         -3.3642   -2.2297    1.4201 O.3       1 <0>        -0.5464
     43 O4         -2.1245   -0.0603   -1.1448 O.3       1 <0>        -0.5563
     44 H6          1.0039    1.9031    0.0027 H         1 <0>         0.0535
     45 H7         -0.5459    1.8868   -0.8726 H         1 <0>         0.0619
     46 H8         -0.5289    1.8773    0.9072 H         1 <0>         0.0546
     47 H9          0.5123   -0.3556   -0.8948 H         1 <0>         0.0705
     48 H10         0.7568   -1.6008    1.2356 H         1 <0>         0.0553
     49 H11         1.7647   -0.1336    1.2338 H         1 <0>         0.0582
     50 H12         0.2319   -0.1594    2.1383 H         1 <0>         0.0570
     51 H13        -0.9823   -2.4159   -0.9330 H         1 <0>         0.0777
     52 H14        -0.8102   -2.4233    0.8386 H         1 <0>         0.0783
     53 H15        -4.6303   -4.4482    1.1509 H         1 <0>         0.0695
     54 H16        -4.9062   -4.1510   -0.5823 H         1 <0>         0.0725
     55 H17        -3.5641   -6.6438    0.5551 H         1 <0>         0.0730
     56 H18        -4.5885   -5.9416   -2.2331 H         1 <0>         0.0464
     57 H19        -2.8783   -6.0365   -1.7491 H         1 <0>         0.0765
     58 H20        -3.6073   -8.1317   -2.8569 H         1 <0>         0.0537
     59 H21        -3.1792   -8.4249   -1.1542 H         1 <0>         0.0633
     60 H22        -6.0033   -8.0009   -2.2319 H         1 <0>         0.0576
     61 H23        -5.3010   -9.5629   -1.7471 H         1 <0>         0.0568
     62 H24        -6.6891   -8.6081    0.0723 H         1 <0>         0.0573
     63 H25        -4.9789   -8.7031    0.5563 H         1 <0>         0.0571
     64 H26        -5.9601   -6.5129    1.1801 H         1 <0>         0.0549
     65 H27        -6.3882   -6.2198   -0.5225 H         1 <0>         0.0588
     66 H28        -1.8508   -4.2099    1.8870 H         1 <0>         0.3934
     67 H29         1.2572   -5.5228    1.3590 H         1 <0>         0.0956
     68 H30         0.2504   -4.5736    2.4787 H         1 <0>         0.0792
     69 H31         2.7389   -7.5363    2.4687 H         1 <0>         0.1525
     70 H32         2.3355   -6.3946    6.4930 H         1 <0>         0.2024
     71 H33         0.0111   -8.0067    0.5833 H         1 <0>         0.4104
     72 H34         1.4441   -9.9677    1.1329 H         1 <0>         0.0970
     73 H35        -1.3352  -10.5005    1.8195 H         1 <0>         0.0838
     74 H36        -0.3107  -11.3630    0.6305 H         1 <0>         0.0942
     75 H37        -1.8709  -13.4745    2.1676 H         1 <0>         0.1187
     76 H38        -1.2621  -15.1257    3.8899 H         1 <0>         0.1215
     77 H39         0.7103  -14.7442    5.3140 H         1 <0>         0.1228
     78 H40         2.0722  -12.7238    5.0208 H         1 <0>         0.1178
     79 H41         2.2978  -10.3978    3.5269 H         1 <0>         0.4190
     80 H42        -2.8577   -2.5792    2.1660 H         1 <0>         0.3642
     81 H43        -1.7251   -0.3356   -1.9813 H         1 <0>         0.3720
@<TRIPOS>BOND
     1    1    2 1
     2    1   44 1
     3    1   45 1
     4    1   46 1
     5    2    3 1
     6    2    4 1
     7    2   47 1
     8    3   48 1
     9    3   49 1
    10    3   50 1
    11    4    5 1
    12    4    6 1
    13    4   43 1
    14    6    7 1
    15    6   51 1
    16    6   52 1
    17    7    8 1
    18    7    9 1
    19    7   42 1
    20    9   10 1
    21    9   11 1
    22    9   18 1
    23   11   12 1
    24   11   53 1
    25   11   54 1
    26   12   17 1
    27   12   13 1
    28   12   55 1
    29   13   14 1
    30   13   56 1
    31   13   57 1
    32   14   15 1
    33   14   58 1
    34   14   59 1
    35   15   16 1
    36   15   60 1
    37   15   61 1
    38   16   17 1
    39   16   62 1
    40   16   63 1
    41   17   64 1
    42   17   65 1
    43   18   19 am
    44   18   66 1
    45   19   20 2
    46   19   21 1
    47   21   22 1
    48   21   23 1
    49   21   30 1
    50   23   67 1
    51   23   68 1
    52   23   24 1
    53   24   25 2
    54   24   29 1
    55   25   26 1
    56   25   69 1
    57   26   28 2
    58   27   29 1
    59   28   70 1
    60   28   29 1
    61   30   31 am
    62   30   71 1
    63   31   32 2
    64   31   33 1
    65   33   41 1
    66   33   34 1
    67   33   72 1
    68   34   35 1
    69   34   73 1
    70   34   74 1
    71   35   40 ar
    72   35   36 ar
    73   36   37 ar
    74   36   75 1
    75   37   38 ar
    76   37   76 1
    77   38   39 ar
    78   38   77 1
    79   39   40 ar
    80   39   78 1
    81   40   41 1
    82   41   79 1
    83   42   80 1
    84   43   81 1
@<TRIPOS>MOLECULE
CHEMBL54458__3
   82    85     0     0     0
SMALL
USER_CHARGES

@<TRIPOS>ATOM
      1 C1         -0.0187    1.5258    0.0104 C.3       1 <0>        -0.1574
      2 C2          0.0021   -0.0041    0.0020 C.3       1 <0>        -0.1230
      3 C3          0.7421   -0.5109    1.2415 C.3       1 <0>        -0.1476
      4 C4         -1.4333   -0.5336    0.0129 C.3       1 <0>         0.1113
      5 H1         -1.4190   -1.6203    0.0965 H         1 <0>         0.1002
      6 C5         -2.1352   -0.1312   -1.2857 C.3       1 <0>        -0.1736
      7 C6         -3.5271   -0.7649   -1.3306 C.3       1 <0>         0.0976
      8 H2         -4.0812   -0.4887   -0.4334 H         1 <0>         0.1177
      9 C7         -4.2760   -0.2636   -2.5670 C.3       1 <0>         0.1123
     10 H3         -4.3720    0.8211   -2.5187 H         1 <0>         0.1044
     11 C8         -5.6679   -0.8973   -2.6119 C.3       1 <0>        -0.1210
     12 C9         -6.4617   -0.3026   -3.7769 C.3       1 <0>        -0.0831
     13 C10        -6.7029    1.1866   -3.5222 C.3       1 <0>        -0.1175
     14 C11        -7.4967    1.7812   -4.6872 C.3       1 <0>        -0.1183
     15 C12        -8.8407    1.0604   -4.8092 C.3       1 <0>        -0.1230
     16 C13        -8.5994   -0.4288   -5.0640 C.3       1 <0>        -0.1192
     17 C14        -7.8057   -1.0235   -3.8990 C.3       1 <0>        -0.1157
     18 N1         -3.5314   -0.6348   -3.7728 N.am      1 <0>        -0.7142
     19 C15        -2.5327    0.1535   -4.2174 C.2       1 <0>         0.5095
     20 O1         -2.2505    1.1701   -3.6193 O.2       1 <0>        -0.5089
     21 C16        -1.7667   -0.2283   -5.4578 C.3       1 <0>         0.1273
     22 H4         -2.4514   -0.2881   -6.3037 H         1 <0>         0.1261
     23 C17        -1.0979   -1.5880   -5.2459 C.3       1 <0>        -0.0717
     24 C18        -0.4347   -2.0265   -6.5261 C.2       1 <0>         0.0377
     25 C19        -1.0326   -2.6696   -7.5471 C.2       1 <0>         0.0541
     26 N2         -0.0734   -2.8748   -8.5019 N.pl3     1 <0>        -0.4998
     27 H5         -0.1976   -3.3152   -9.3572 H         1 <0>         0.4664
     28 C20         1.0781   -2.3497   -8.0307 C.cat     1 <0>         0.3150
     29 N3          0.8533   -1.8397   -6.8507 N.pl3     1 <0>        -0.4738
     30 N4         -0.7420    0.7828   -5.7295 N.am      1 <0>        -0.7125
     31 C21        -0.2837    0.9574   -6.9849 C.2       1 <0>         0.5017
     32 O2         -0.7196    0.2775   -7.8896 O.2       1 <0>        -0.5254
     33 C22         0.7704    1.9975   -7.2644 C.3       1 <0>         0.1318
     34 C23         2.1678    1.4388   -6.9500 C.3       1 <0>        -0.0590
     35 C24         2.9035    1.4914   -8.2701 C.ar      1 <0>        -0.1913
     36 C25         4.1920    1.1215   -8.6048 C.ar      1 <0>        -0.0603
     37 C26         4.6412    1.2682   -9.9038 C.ar      1 <0>        -0.1655
     38 C27         3.7974    1.7867  -10.8692 C.ar      1 <0>        -0.0651
     39 C28         2.5112    2.1571  -10.5402 C.ar      1 <0>        -0.1723
     40 C29         2.0498    2.0119   -9.2299 C.ar      1 <0>         0.2010
     41 N5          0.7990    2.3211   -8.6933 N.pl3     1 <0>        -0.7200
     42 O3         -3.4013   -2.1869   -1.3939 O.3       1 <0>        -0.5460
     43 O4         -2.1371    0.0205    1.1263 O.3       1 <0>        -0.5553
     44 H6          1.0039    1.9031    0.0027 H         1 <0>         0.0587
     45 H7         -0.5459    1.8868   -0.8726 H         1 <0>         0.0597
     46 H8         -0.5289    1.8773    0.9072 H         1 <0>         0.0587
     47 H9          0.5123   -0.3556   -0.8948 H         1 <0>         0.0679
     48 H10         0.2319   -0.1594    2.1383 H         1 <0>         0.0637
     49 H11         0.7568   -1.6008    1.2356 H         1 <0>         0.0534
     50 H12         1.7647   -0.1336    1.2338 H         1 <0>         0.0537
     51 H13        -2.2286    0.9540   -1.3270 H         1 <0>         0.0895
     52 H14        -1.5503   -0.4783   -2.1375 H         1 <0>         0.0632
     53 H15        -5.5725   -1.9744   -2.7495 H         1 <0>         0.0778
     54 H16        -6.1894   -0.6953   -1.6763 H         1 <0>         0.0855
     55 H17        -5.8977   -0.4264   -4.7015 H         1 <0>         0.0655
     56 H18        -7.2669    1.3103   -2.5976 H         1 <0>         0.0653
     57 H19        -5.7454    1.7001   -3.4353 H         1 <0>         0.0594
     58 H20        -7.6686    2.8422   -4.5057 H         1 <0>         0.0618
     59 H21        -6.9328    1.6575   -5.6117 H         1 <0>         0.0563
     60 H22        -9.4046    1.1842   -3.8847 H         1 <0>         0.0636
     61 H23        -9.4062    1.4841   -5.6392 H         1 <0>         0.0616
     62 H24        -9.5569   -0.9424   -5.1509 H         1 <0>         0.0634
     63 H25        -8.0355   -0.5526   -5.9885 H         1 <0>         0.0578
     64 H26        -7.6338   -2.0844   -4.0804 H         1 <0>         0.0616
     65 H27        -8.3696   -0.8997   -2.9744 H         1 <0>         0.0653
     66 H28        -3.7571   -1.4479   -4.2512 H         1 <0>         0.4019
     67 H29        -0.3489   -1.5057   -4.4583 H         1 <0>         0.1065
     68 H30        -1.8502   -2.3218   -4.9566 H         1 <0>         0.1252
     69 H31        -2.0695   -2.9666   -7.6020 H         1 <0>         0.2223
     70 H32         2.0268   -2.3483   -8.5466 H         1 <0>         0.2605
     71 H33        -0.3933    1.3267   -5.0059 H         1 <0>         0.4189
     72 H34         0.5797    2.8957   -6.6770 H         1 <0>         0.1078
     73 H35         2.6692    2.0626   -6.2100 H         1 <0>         0.1040
     74 H36         2.0953    0.4105   -6.5956 H         1 <0>         0.0581
     75 H37         4.8498    0.7171   -7.8497 H         1 <0>         0.1222
     76 H38         5.6487    0.9791  -10.1642 H         1 <0>         0.1275
     77 H39         4.1476    1.9020  -11.8843 H         1 <0>         0.1288
     78 H40         1.8575    2.5616  -11.2988 H         1 <0>         0.1212
     79 H41         0.0569    2.6956   -9.1933 H         1 <0>         0.4199
     80 H42        -2.9179   -2.5049   -2.1687 H         1 <0>         0.3606
     81 H43        -2.1892    0.9861    1.1175 H         1 <0>         0.3718
     82 H44         1.5138   -1.3970   -6.2952 H         1 <0>         0.4554
@<TRIPOS>BOND
     1    1    2 1
     2    1   44 1
     3    1   45 1
     4    1   46 1
     5    2    3 1
     6    2    4 1
     7    2   47 1
     8    3   48 1
     9    3   49 1
    10    3   50 1
    11    4    5 1
    12    4    6 1
    13    4   43 1
    14    6    7 1
    15    6   51 1
    16    6   52 1
    17    7    8 1
    18    7    9 1
    19    7   42 1
    20    9   10 1
    21    9   11 1
    22    9   18 1
    23   11   12 1
    24   11   53 1
    25   11   54 1
    26   12   17 1
    27   12   13 1
    28   12   55 1
    29   13   14 1
    30   13   56 1
    31   13   57 1
    32   14   15 1
    33   14   58 1
    34   14   59 1
    35   15   16 1
    36   15   60 1
    37   15   61 1
    38   16   17 1
    39   16   62 1
    40   16   63 1
    41   17   64 1
    42   17   65 1
    43   18   19 am
    44   18   66 1
    45   19   20 2
    46   19   21 1
    47   21   22 1
    48   21   23 1
    49   21   30 1
    50   23   24 1
    51   23   67 1
    52   23   68 1
    53   24   29 1
    54   24   25 2
    55   25   26 1
    56   25   69 1
    57   26   27 1
    58   26   28 1
    59   28   29 2
    60   28   70 1
    61   29   82 1
    62   30   31 am
    63   30   71 1
    64   31   32 2
    65   31   33 1
    66   33   41 1
    67   33   34 1
    68   33   72 1
    69   34   35 1
    70   34   73 1
    71   34   74 1
    72   35   40 ar
    73   35   36 ar
    74   36   37 ar
    75   36   75 1
    76   37   38 ar
    77   37   76 1
    78   38   39 ar
    79   38   77 1
    80   39   40 ar
    81   39   78 1
    82   40   41 1
    83   41   79 1
    84   42   80 1
    85   43   81 1
@<TRIPOS>MOLECULE
CHEMBL54458__4
   81    84     0     0     0
SMALL
USER_CHARGES

@<TRIPOS>ATOM
      1 C1         -0.1941    1.2762   -0.7083 C.3       1 <0>        -0.1450
      2 C2         -0.0524   -0.2399   -0.5584 C.3       1 <0>        -0.1285
      3 C3          0.5107   -0.5650    0.8266 C.3       1 <0>        -0.1488
      4 C4         -1.4239   -0.8987   -0.7189 C.3       1 <0>         0.1141
      5 H1         -2.1009   -0.5196    0.0467 H         1 <0>         0.1043
      6 C5         -1.2821   -2.4147   -0.5690 C.3       1 <0>        -0.1853
      7 C6         -2.6677   -3.0626   -0.6050 C.3       1 <0>         0.1036
      8 H2         -3.1856   -2.7624   -1.5159 H         1 <0>         0.1193
      9 C7         -2.5196   -4.5852   -0.5806 C.3       1 <0>         0.1144
     10 H3         -1.9448   -4.9083   -1.4486 H         1 <0>         0.1004
     11 C8         -3.9052   -5.2330   -0.6165 C.3       1 <0>        -0.1214
     12 C9         -3.7554   -6.7523   -0.7180 C.3       1 <0>        -0.0814
     13 C10        -3.1054   -7.1125   -2.0553 C.3       1 <0>        -0.1031
     14 C11        -2.9556   -8.6318   -2.1568 C.3       1 <0>        -0.1084
     15 C12        -4.3351   -9.2874   -2.0672 C.3       1 <0>        -0.1193
     16 C13        -4.9851   -8.9272   -0.7299 C.3       1 <0>        -0.1165
     17 C14        -5.1349   -7.4079   -0.6284 C.3       1 <0>        -0.1134
     18 N1         -1.8235   -4.9886    0.6437 N.am      1 <0>        -0.7234
     19 C15        -1.1396   -6.1494    0.6788 C.2       1 <0>         0.5031
     20 O1         -1.1004   -6.8600   -0.3033 O.2       1 <0>        -0.5006
     21 C16        -0.4235   -6.5643    1.9382 C.3       1 <0>         0.1362
     22 H4         -1.1434   -6.6582    2.7513 H         1 <0>         0.1108
     23 C17         0.6220   -5.5082    2.3020 C.3       1 <0>        -0.0447
     24 C18         1.2683   -5.8722    3.6138 C.2       1 <0>        -0.0332
     25 C19         2.3074   -6.7103    3.7914 C.2       1 <0>        -0.0077
     26 N2          2.5788   -6.7623    5.1039 N.2       1 <0>        -0.4894
     27 H5          0.2009   -4.7858    5.0526 H         1 <0>         0.4192
     28 C20         1.7474   -5.9883    5.7464 C.2       1 <0>         0.1941
     29 N3          0.9160   -5.4100    4.8531 N.pl3     1 <0>        -0.5649
     30 N4          0.2389   -7.8529    1.7213 N.am      1 <0>        -0.7038
     31 C21        -0.4601   -8.9988    1.8423 C.2       1 <0>         0.5139
     32 O2         -1.6114   -8.9695    2.2223 O.2       1 <0>        -0.5180
     33 C22         0.1889  -10.3165    1.5054 C.3       1 <0>         0.1384
     34 C23         0.9062  -10.8887    2.7391 C.3       1 <0>        -0.0686
     35 C24         0.2141  -12.2071    3.0029 C.ar      1 <0>        -0.1736
     36 C25         0.4255  -13.1623    3.9787 C.ar      1 <0>        -0.0591
     37 C26        -0.3521  -14.3046    4.0122 C.ar      1 <0>        -0.1719
     38 C27        -1.3436  -14.4900    3.0659 C.ar      1 <0>        -0.0735
     39 C28        -1.5583  -13.5401    2.0906 C.ar      1 <0>        -0.1771
     40 C29        -0.7768  -12.3832    2.0500 C.ar      1 <0>         0.2024
     41 N5         -0.8298  -11.3109    1.1580 N.pl3     1 <0>        -0.7188
     42 O3         -3.4212   -2.6390    0.5329 O.3       1 <0>        -0.5466
     43 O4         -1.9498   -0.5950   -2.0125 O.3       1 <0>        -0.5563
     44 H6          0.7830    1.7455   -0.5940 H         1 <0>         0.0535
     45 H7         -0.5953    1.5078   -1.6950 H         1 <0>         0.0618
     46 H8         -0.8711    1.6552    0.0573 H         1 <0>         0.0546
     47 H9          0.6246   -0.6189   -1.3240 H         1 <0>         0.0704
     48 H10         0.6117   -1.6450    0.9333 H         1 <0>         0.0553
     49 H11         1.4878   -0.0956    0.9409 H         1 <0>         0.0581
     50 H12        -0.1663   -0.1859    1.5921 H         1 <0>         0.0570
     51 H13        -0.6769   -2.8057   -1.3870 H         1 <0>         0.0771
     52 H14        -0.7992   -2.6423    0.3813 H         1 <0>         0.0781
     53 H15        -4.4477   -4.9814    0.2948 H         1 <0>         0.0685
     54 H16        -4.4566   -4.8638   -1.4812 H         1 <0>         0.0701
     55 H17        -3.1290   -7.1109    0.0988 H         1 <0>         0.0782
     56 H18        -3.7318   -6.7539   -2.8721 H         1 <0>         0.0449
     57 H19        -2.1226   -6.6454   -2.1191 H         1 <0>         0.0749
     58 H20        -2.4925   -8.8884   -3.1095 H         1 <0>         0.0516
     59 H21        -2.3291   -8.9904   -1.3400 H         1 <0>         0.0602
     60 H22        -4.9615   -8.9287   -2.8840 H         1 <0>         0.0570
     61 H23        -4.2283  -10.3697   -2.1395 H         1 <0>         0.0551
     62 H24        -5.9679   -9.3942   -0.6661 H         1 <0>         0.0557
     63 H25        -4.3587   -9.2858    0.0869 H         1 <0>         0.0602
     64 H26        -5.5980   -7.1513    0.3243 H         1 <0>         0.0541
     65 H27        -5.7613   -7.0492   -1.4452 H         1 <0>         0.0566
     66 H28        -1.8549   -4.4202    1.4291 H         1 <0>         0.3905
     67 H29         1.3820   -5.4655    1.5219 H         1 <0>         0.1020
     68 H30         0.1392   -4.5351    2.3925 H         1 <0>         0.0887
     69 H31         2.8305   -7.2465    3.0134 H         1 <0>         0.1661
     70 H32         1.7294   -5.8333    6.8150 H         1 <0>         0.2092
     71 H33         1.1807   -7.8813    1.4906 H         1 <0>         0.4051
     72 H34         0.8918  -10.1915    0.6817 H         1 <0>         0.0988
     73 H35         1.9625  -11.0500    2.5242 H         1 <0>         0.0954
     74 H36         0.7884  -10.2200    3.5917 H         1 <0>         0.0858
     75 H37         1.2004  -13.0162    4.7167 H         1 <0>         0.1201
     76 H38        -0.1857  -15.0506    4.7752 H         1 <0>         0.1222
     77 H39        -1.9514  -15.3823    3.0911 H         1 <0>         0.1231
     78 H40        -2.3339  -13.6912    1.3544 H         1 <0>         0.1171
     79 H41        -1.4504  -11.2350    0.4164 H         1 <0>         0.4157
     80 H42        -3.0187   -2.8730    1.3805 H         1 <0>         0.3639
     81 H43        -1.3976   -0.9037   -2.7439 H         1 <0>         0.3720
@<TRIPOS>BOND
     1    1    2 1
     2    1   44 1
     3    1   45 1
     4    1   46 1
     5    2    3 1
     6    2    4 1
     7    2   47 1
     8    3   48 1
     9    3   49 1
    10    3   50 1
    11    4    5 1
    12    4    6 1
    13    4   43 1
    14    6    7 1
    15    6   51 1
    16    6   52 1
    17    7    8 1
    18    7    9 1
    19    7   42 1
    20    9   10 1
    21    9   11 1
    22    9   18 1
    23   11   12 1
    24   11   53 1
    25   11   54 1
    26   12   17 1
    27   12   13 1
    28   12   55 1
    29   13   14 1
    30   13   56 1
    31   13   57 1
    32   14   15 1
    33   14   58 1
    34   14   59 1
    35   15   16 1
    36   15   60 1
    37   15   61 1
    38   16   17 1
    39   16   62 1
    40   16   63 1
    41   17   64 1
    42   17   65 1
    43   18   19 am
    44   18   66 1
    45   19   20 2
    46   19   21 1
    47   21   22 1
    48   21   23 1
    49   21   30 1
    50   23   67 1
    51   23   68 1
    52   23   24 1
    53   24   25 2
    54   24   29 1
    55   25   26 1
    56   25   69 1
    57   26   28 2
    58   27   29 1
    59   28   70 1
    60   28   29 1
    61   30   31 am
    62   30   71 1
    63   31   32 2
    64   31   33 1
    65   33   41 1
    66   33   34 1
    67   33   72 1
    68   34   35 1
    69   34   73 1
    70   34   74 1
    71   35   40 ar
    72   35   36 ar
    73   36   37 ar
    74   36   75 1
    75   37   38 ar
    76   37   76 1
    77   38   39 ar
    78   38   77 1
    79   39   40 ar
    80   39   78 1
    81   40   41 1
    82   41   79 1
    83   42   80 1
    84   43   81 1
@<TRIPOS>MOLECULE
CHEMBL54458__5
   81    84     0     0     0
SMALL
USER_CHARGES

@<TRIPOS>ATOM
      1 C1         -0.0187    1.5258    0.0104 C.3       1 <0>        -0.1448
      2 C2          0.0021   -0.0041    0.0020 C.3       1 <0>        -0.1280
      3 C3          0.7421   -0.5109    1.2415 C.3       1 <0>        -0.1495
      4 C4         -1.4333   -0.5336    0.0129 C.3       1 <0>         0.1140
      5 H1         -1.9435   -0.1821    0.9097 H         1 <0>         0.1049
      6 C5         -1.4126   -2.0635    0.0045 C.3       1 <0>        -0.1866
      7 C6         -2.8413   -2.5937    0.1410 C.3       1 <0>         0.1040
      8 H2         -3.4650   -2.1632   -0.6424 H         1 <0>         0.1189
      9 C7         -2.8345   -4.1178    0.0076 C.3       1 <0>         0.1136
     10 H3         -2.4357   -4.3954   -0.9680 H         1 <0>         0.1012
     11 C8         -4.2632   -4.6480    0.1442 C.3       1 <0>        -0.1221
     12 C9         -4.2743   -6.1562   -0.1127 C.3       1 <0>        -0.0809
     13 C10        -3.8783   -6.4291   -1.5652 C.3       1 <0>        -0.1045
     14 C11        -3.8894   -7.9373   -1.8221 C.3       1 <0>        -0.1104
     15 C12        -5.2931   -8.4884   -1.5640 C.3       1 <0>        -0.1208
     16 C13        -5.6891   -8.2156   -0.1116 C.3       1 <0>        -0.1165
     17 C14        -5.6780   -6.7073    0.1454 C.3       1 <0>        -0.1157
     18 N1         -1.9962   -4.6965    1.0606 N.am      1 <0>        -0.7190
     19 C15        -1.4271   -5.9049    0.8810 C.2       1 <0>         0.5131
     20 O1         -1.6090   -6.5133   -0.1523 O.2       1 <0>        -0.5147
     21 C16        -0.5648   -6.5001    1.9641 C.3       1 <0>         0.1392
     22 H4         -1.1540   -6.6191    2.8734 H         1 <0>         0.1202
     23 C17         0.6191   -5.5715    2.2414 C.3       1 <0>        -0.0368
     24 C18         1.4130   -6.1039    3.4065 C.2       1 <0>         0.0077
     25 C19         2.7323   -6.3739    3.4078 C.2       1 <0>        -0.0585
     26 N2          3.0412   -6.8338    4.6595 N.pl3     1 <0>        -0.5680
     27 H5          3.9169   -7.1115    4.9708 H         1 <0>         0.4167
     28 C20         1.8991   -6.8287    5.3800 C.2       1 <0>         0.1971
     29 N3          0.9305   -6.3863    4.6257 N.2       1 <0>        -0.4531
     30 N4         -0.0682   -7.8080    1.5294 N.am      1 <0>        -0.7116
     31 C21         0.2785   -8.7352    2.4441 C.2       1 <0>         0.4957
     32 O2          0.1793   -8.4868    3.6270 O.2       1 <0>        -0.4883
     33 C22         0.7893  -10.0806    1.9969 C.3       1 <0>         0.1355
     34 C23         2.2898  -10.0003    1.6716 C.3       1 <0>        -0.0670
     35 C24         2.9398  -10.9657    2.6371 C.ar      1 <0>        -0.1741
     36 C25         4.2647  -11.3149    2.8153 C.ar      1 <0>        -0.0609
     37 C26         4.6153  -12.2385    3.7823 C.ar      1 <0>        -0.1740
     38 C27         3.6361  -12.8130    4.5721 C.ar      1 <0>        -0.0730
     39 C28         2.3131  -12.4679    4.3982 C.ar      1 <0>        -0.1782
     40 C29         1.9508  -11.5355    3.4233 C.ar      1 <0>         0.2057
     41 N5          0.6848  -11.0526    3.0885 N.pl3     1 <0>        -0.7182
     42 O3         -3.3642   -2.2297    1.4201 O.3       1 <0>        -0.5478
     43 O4         -2.1245   -0.0603   -1.1448 O.3       1 <0>        -0.5568
     44 H6          1.0039    1.9031    0.0027 H         1 <0>         0.0529
     45 H7         -0.5459    1.8868   -0.8726 H         1 <0>         0.0612
     46 H8         -0.5289    1.8773    0.9072 H         1 <0>         0.0548
     47 H9          0.5123   -0.3556   -0.8948 H         1 <0>         0.0697
     48 H10         0.7568   -1.6008    1.2356 H         1 <0>         0.0570
     49 H11         1.7647   -0.1336    1.2338 H         1 <0>         0.0572
     50 H12         0.2319   -0.1594    2.1383 H         1 <0>         0.0577
     51 H13        -0.9823   -2.4159   -0.9330 H         1 <0>         0.0766
     52 H14        -0.8102   -2.4233    0.8386 H         1 <0>         0.0803
     53 H15        -4.6303   -4.4482    1.1509 H         1 <0>         0.0702
     54 H16        -4.9062   -4.1510   -0.5823 H         1 <0>         0.0712
     55 H17        -3.5641   -6.6438    0.5551 H         1 <0>         0.0742
     56 H18        -4.5885   -5.9416   -2.2331 H         1 <0>         0.0457
     57 H19        -2.8783   -6.0365   -1.7491 H         1 <0>         0.0771
     58 H20        -3.6073   -8.1317   -2.8569 H         1 <0>         0.0528
     59 H21        -3.1792   -8.4249   -1.1542 H         1 <0>         0.0626
     60 H22        -6.0033   -8.0009   -2.2319 H         1 <0>         0.0576
     61 H23        -5.3010   -9.5629   -1.7471 H         1 <0>         0.0556
     62 H24        -6.6891   -8.6081    0.0723 H         1 <0>         0.0568
     63 H25        -4.9789   -8.7031    0.5563 H         1 <0>         0.0568
     64 H26        -5.9601   -6.5129    1.1801 H         1 <0>         0.0556
     65 H27        -6.3882   -6.2198   -0.5225 H         1 <0>         0.0584
     66 H28        -1.8508   -4.2099    1.8870 H         1 <0>         0.3963
     67 H29         1.2572   -5.5228    1.3590 H         1 <0>         0.0794
     68 H30         0.2504   -4.5736    2.4787 H         1 <0>         0.0814
     69 H31         3.4153   -6.2516    2.5801 H         1 <0>         0.1650
     70 H32         1.8039   -7.1360    6.4110 H         1 <0>         0.1978
     71 H33         0.0111   -8.0067    0.5833 H         1 <0>         0.4065
     72 H34         0.2304  -10.4268    1.1275 H         1 <0>         0.0959
     73 H35         2.4731  -10.3101    0.6428 H         1 <0>         0.0918
     74 H36         2.6613   -8.9889    1.8371 H         1 <0>         0.0838
     75 H37         5.0281  -10.8656    2.1975 H         1 <0>         0.1176
     76 H38         5.6512  -12.5109    3.9204 H         1 <0>         0.1212
     77 H39         3.9091  -13.5349    5.3276 H         1 <0>         0.1228
     78 H40         1.5534  -12.9205    5.0181 H         1 <0>         0.1172
     79 H41        -0.1435  -11.3212    3.5161 H         1 <0>         0.4157
     80 H42        -2.8577   -2.5792    2.1660 H         1 <0>         0.3667
     81 H43        -1.7251   -0.3356   -1.9813 H         1 <0>         0.3713
@<TRIPOS>BOND
     1    1    2 1
     2    1   44 1
     3    1   45 1
     4    1   46 1
     5    2    3 1
     6    2    4 1
     7    2   47 1
     8    3   48 1
     9    3   49 1
    10    3   50 1
    11    4    5 1
    12    4    6 1
    13    4   43 1
    14    6    7 1
    15    6   51 1
    16    6   52 1
    17    7    8 1
    18    7    9 1
    19    7   42 1
    20    9   10 1
    21    9   11 1
    22    9   18 1
    23   11   12 1
    24   11   53 1
    25   11   54 1
    26   12   17 1
    27   12   13 1
    28   12   55 1
    29   13   14 1
    30   13   56 1
    31   13   57 1
    32   14   15 1
    33   14   58 1
    34   14   59 1
    35   15   16 1
    36   15   60 1
    37   15   61 1
    38   16   17 1
    39   16   62 1
    40   16   63 1
    41   17   64 1
    42   17   65 1
    43   18   19 am
    44   18   66 1
    45   19   20 2
    46   19   21 1
    47   21   22 1
    48   21   23 1
    49   21   30 1
    50   23   24 1
    51   23   67 1
    52   23   68 1
    53   24   29 1
    54   24   25 2
    55   25   26 1
    56   25   69 1
    57   26   27 1
    58   26   28 1
    59   28   29 2
    60   28   70 1
    61   30   31 am
    62   30   71 1
    63   31   32 2
    64   31   33 1
    65   33   41 1
    66   33   34 1
    67   33   72 1
    68   34   35 1
    69   34   73 1
    70   34   74 1
    71   35   40 ar
    72   35   36 ar
    73   36   37 ar
    74   36   75 1
    75   37   38 ar
    76   37   76 1
    77   38   39 ar
    78   38   77 1
    79   39   40 ar
    80   39   78 1
    81   40   41 1
    82   41   79 1
    83   42   80 1
    84   43   81 1
@<TRIPOS>MOLECULE
CHEMBL50213
   82    84     0     0     0
SMALL
USER_CHARGES

@<TRIPOS>ATOM
      1 C1         -0.5197    0.8379    0.0644 C.3       1 <0>        -0.1643
      2 C2         -0.6481   -0.6067    0.5518 C.3       1 <0>         0.0712
      3 H1         -0.1604   -1.2744   -0.1584 H         1 <0>         0.0822
      4 C3          0.0090   -0.7419    1.9012 C.2       1 <0>         0.5210
      5 O1         -0.6628   -0.9856    2.8811 O.2       1 <0>        -0.5003
      6 N1          1.3432   -0.5919    2.0191 N.am      1 <0>        -0.7271
      7 C4          1.9971   -0.8386    3.3066 C.3       1 <0>         0.1206
      8 H2          1.3599   -0.4760    4.1132 H         1 <0>         0.1073
      9 C5          2.2333   -2.3404    3.4791 C.3       1 <0>        -0.1210
     10 C6          2.8190   -2.6085    4.8669 C.3       1 <0>        -0.0813
     11 C7          1.7825   -2.2541    5.9351 C.3       1 <0>        -0.1158
     12 C8          2.3682   -2.5222    7.3229 C.3       1 <0>        -0.1197
     13 C9          2.7389   -4.0017    7.4429 C.3       1 <0>        -0.1205
     14 C10         3.7754   -4.3561    6.3748 C.3       1 <0>        -0.1192
     15 C11         3.1897   -4.0880    4.9870 C.3       1 <0>        -0.1116
     16 C12         3.3384   -0.1035    3.3466 C.3       1 <0>         0.0670
     17 H3          3.8249   -0.2871    4.3046 H         1 <0>         0.1157
     18 C13         3.1022    1.3983    3.1741 C.3       1 <0>         0.0755
     19 H4          2.6156    1.5819    2.2162 H         1 <0>         0.1001
     20 C14         4.4434    2.1334    3.2141 C.3       1 <0>        -0.1442
     21 C15         4.2193    3.6194    2.9269 C.3       1 <0>        -0.0948
     22 C16         5.5358    4.3778    3.1070 C.3       1 <0>        -0.1484
     23 C17         3.7238    3.7920    1.4897 C.3       1 <0>        -0.1496
     24 O2          2.2667    1.8736    4.2315 O.3       1 <0>        -0.5466
     25 O3          4.1738   -0.5789    2.2892 O.3       1 <0>        -0.5425
     26 O4         -2.0306   -0.9523    0.6584 O.3       1 <0>        -0.3144
     27 C18        -2.5461   -1.6446   -0.4805 C.3       1 <0>         0.0875
     28 H5         -1.7262   -2.1210   -1.0180 H         1 <0>         0.0881
     29 C19        -3.5426   -2.7109   -0.0212 C.3       1 <0>        -0.0741
     30 C20        -2.8196   -3.7614    0.7817 C.ar      1 <0>        -0.0918
     31 C21        -2.3438   -4.9006    0.1599 C.ar      1 <0>        -0.1191
     32 C22        -1.6806   -5.8643    0.8963 C.ar      1 <0>        -0.1247
     33 C23        -1.4929   -5.6886    2.2545 C.ar      1 <0>        -0.1191
     34 C24        -1.9679   -4.5490    2.8762 C.ar      1 <0>        -0.1150
     35 C25        -2.6273   -3.5833    2.1390 C.ar      1 <0>        -0.0812
     36 C26        -3.2419   -0.6657   -1.3908 C.2       1 <0>         0.5193
     37 O5         -3.2914    0.5091   -1.0936 O.2       1 <0>        -0.5130
     38 N2         -3.8091   -1.0957   -2.5353 N.am      1 <0>        -0.6493
     39 C27        -3.9644   -2.3881   -3.2197 C.3       1 <0>         0.0940
     40 C28        -4.0359   -1.6164   -4.5447 C.3       1 <0>        -0.1550
     41 C29        -4.5509   -0.4801   -3.6460 C.3       1 <0>         0.1029
     42 H6          0.5348    1.1016   -0.0169 H         1 <0>         0.0631
     43 H7         -0.9950    0.9357   -0.9116 H         1 <0>         0.0757
     44 H8         -1.0074    1.5057    0.7746 H         1 <0>         0.0744
     45 H9          1.8705   -0.3205    1.2515 H         1 <0>         0.3899
     46 H10         1.2870   -2.8713    3.3754 H         1 <0>         0.0688
     47 H11         2.9306   -2.6885    2.7171 H         1 <0>         0.0697
     48 H12         3.7106   -1.9978    5.0091 H         1 <0>         0.0698
     49 H13         1.5184   -1.2001    5.8496 H         1 <0>         0.0622
     50 H14         0.8909   -2.8648    5.7929 H         1 <0>         0.0634
     51 H15         3.2598   -1.9115    7.4651 H         1 <0>         0.0593
     52 H16         1.6297   -2.2698    8.0839 H         1 <0>         0.0608
     53 H17         3.1562   -4.1927    8.4316 H         1 <0>         0.0594
     54 H18         1.8473   -4.6124    7.3007 H         1 <0>         0.0606
     55 H19         4.6670   -3.7454    6.5170 H         1 <0>         0.0603
     56 H20         4.0395   -5.4102    6.4603 H         1 <0>         0.0601
     57 H21         2.2981   -4.6987    4.8447 H         1 <0>         0.0606
     58 H22         3.9281   -4.3405    4.2260 H         1 <0>         0.0604
     59 H23         4.8919    2.0176    4.2008 H         1 <0>         0.0658
     60 H24         5.1101    1.7142    2.4605 H         1 <0>         0.0797
     61 H25         3.4748    4.0147    3.6179 H         1 <0>         0.0763
     62 H26         5.3586    5.4467    2.9876 H         1 <0>         0.0547
     63 H27         5.9332    4.1845    4.1034 H         1 <0>         0.0534
     64 H28         6.2536    4.0427    2.3583 H         1 <0>         0.0536
     65 H29         2.7859    3.2516    1.3614 H         1 <0>         0.0536
     66 H30         3.5641    4.8506    1.2851 H         1 <0>         0.0551
     67 H31         4.4683    3.3966    0.7987 H         1 <0>         0.0534
     68 H32         2.6376    1.7427    5.1149 H         1 <0>         0.3742
     69 H33         3.8029   -0.4480    1.4058 H         1 <0>         0.3688
     70 H34        -4.3120   -2.2472    0.5963 H         1 <0>         0.0888
     71 H35        -4.0061   -3.1742   -0.8922 H         1 <0>         0.0897
     72 H36        -2.4905   -5.0379   -0.9013 H         1 <0>         0.1178
     73 H37        -1.3095   -6.7547    0.4106 H         1 <0>         0.1197
     74 H38        -0.9754   -6.4418    2.8301 H         1 <0>         0.1183
     75 H39        -1.8215   -4.4118    3.9374 H         1 <0>         0.1193
     76 H40        -2.9952   -2.6912    2.6240 H         1 <0>         0.1275
     77 H41        -3.0876   -3.0305   -3.1383 H         1 <0>         0.0792
     78 H42        -4.8907   -2.9043   -2.9676 H         1 <0>         0.0900
     79 H43        -3.0656   -1.4237   -5.0025 H         1 <0>         0.0956
     80 H44        -4.7771   -1.9999   -5.2458 H         1 <0>         0.0934
     81 H45        -5.6318   -0.4934   -3.5062 H         1 <0>         0.0866
     82 H46        -4.1738    0.5030   -3.9277 H         1 <0>         0.0788
@<TRIPOS>BOND
     1    1    2 1
     2    1   42 1
     3    1   43 1
     4    1   44 1
     5    2    3 1
     6    2    4 1
     7    2   26 1
     8    4    5 2
     9    4    6 am
    10    6    7 1
    11    6   45 1
    12    7    8 1
    13    7    9 1
    14    7   16 1
    15    9   10 1
    16    9   46 1
    17    9   47 1
    18   10   15 1
    19   10   11 1
    20   10   48 1
    21   11   12 1
    22   11   49 1
    23   11   50 1
    24   12   13 1
    25   12   51 1
    26   12   52 1
    27   13   14 1
    28   13   53 1
    29   13   54 1
    30   14   15 1
    31   14   55 1
    32   14   56 1
    33   15   57 1
    34   15   58 1
    35   16   17 1
    36   16   18 1
    37   16   25 1
    38   18   19 1
    39   18   20 1
    40   18   24 1
    41   20   21 1
    42   20   59 1
    43   20   60 1
    44   21   22 1
    45   21   23 1
    46   21   61 1
    47   22   62 1
    48   22   63 1
    49   22   64 1
    50   23   65 1
    51   23   66 1
    52   23   67 1
    53   24   68 1
    54   25   69 1
    55   26   27 1
    56   27   28 1
    57   27   29 1
    58   27   36 1
    59   29   30 1
    60   29   70 1
    61   29   71 1
    62   30   35 ar
    63   30   31 ar
    64   31   32 ar
    65   31   72 1
    66   32   33 ar
    67   32   73 1
    68   33   34 ar
    69   33   74 1
    70   34   35 ar
    71   34   75 1
    72   35   76 1
    73   36   37 2
    74   36   38 am
    75   38   41 1
    76   38   39 1
    77   39   40 1
    78   39   77 1
    79   39   78 1
    80   40   41 1
    81   40   79 1
    82   40   80 1
    83   41   81 1
    84   41   82 1
@<TRIPOS>MOLECULE
CHEMBL148073
   86    88     0     0     0
SMALL
USER_CHARGES

@<TRIPOS>ATOM
      1 C1         -0.0187    1.5258    0.0104 C.3       1 <0>        -0.1517
      2 C2          0.0021   -0.0041    0.0020 C.3       1 <0>        -0.1197
      3 C3         -1.4333   -0.5336    0.0129 C.3       1 <0>        -0.1240
      4 C4         -1.4126   -2.0635    0.0045 C.3       1 <0>        -0.1237
      5 C5         -2.8479   -2.5931    0.0153 C.3       1 <0>         0.1536
      6 H1         -3.4008   -2.1613   -0.8189 H         1 <0>         0.0843
      7 C6         -2.8306   -4.0942   -0.1167 C.2       1 <0>         0.5065
      8 O1         -3.2293   -4.7878    0.7948 O.2       1 <0>        -0.4997
      9 N1         -2.3719   -4.6659   -1.2478 N.am      1 <0>        -0.7320
     10 C7         -2.3550   -6.1251   -1.3762 C.3       1 <0>         0.1140
     11 H2         -2.1324   -6.5726   -0.4075 H         1 <0>         0.0996
     12 C8         -3.7230   -6.6104   -1.8598 C.3       1 <0>        -0.1183
     13 C9         -4.7772   -6.3102   -0.7923 C.3       1 <0>        -0.0903
     14 C10        -4.4781   -7.1297    0.4646 C.3       1 <0>        -0.1007
     15 C11        -5.5324   -6.8295    1.5320 C.3       1 <0>        -0.1156
     16 C12        -6.9178   -7.2004    0.9991 C.3       1 <0>        -0.1152
     17 C13        -7.2169   -6.3808   -0.2578 C.3       1 <0>        -0.1234
     18 C14        -6.1627   -6.6811   -1.3253 C.3       1 <0>        -0.1082
     19 C15        -1.2818   -6.5358   -2.3864 C.3       1 <0>         0.1103
     20 H3         -1.2693   -7.6216   -2.4819 H         1 <0>         0.1128
     21 C16         0.0862   -6.0505   -1.9028 C.3       1 <0>        -0.1405
     22 C17         1.1736   -6.5673   -2.8469 C.3       1 <0>        -0.0865
     23 S1          2.7956   -5.9920   -2.2735 S.3       1 <0>        -0.0797
     24 C18         3.9251   -6.6610   -3.4488 C.ar      1 <0>         0.1235
     25 C19         5.2888   -6.4180   -3.3109 C.ar      1 <0>        -0.1528
     26 C20         6.1637   -6.9492   -4.2404 C.ar      1 <0>        -0.0587
     27 C21         5.6447   -7.7088   -5.2813 C.ar      1 <0>        -0.1836
     28 C22         4.2813   -7.9099   -5.3572 C.ar      1 <0>         0.1146
     29 N2          3.4697   -7.3953   -4.4528 N.ar      1 <0>        -0.4904
     30 O2         -1.5737   -5.9493   -3.6563 O.3       1 <0>        -0.5510
     31 O3         -3.4802   -2.2303    1.2444 O.3       1 <0>        -0.7350
     32 P1         -4.8059   -1.3193    1.3131 P.3       1 <0>         2.2624
     33 O4         -5.9130   -1.9544    0.4425 O.2       1 <0>        -1.0859
     34 C23        -5.3790   -1.2095    3.0402 C.3       1 <0>        -0.7272
     35 C24        -6.7057   -0.4491    3.0899 C.3       1 <0>        -0.0836
     36 C25        -7.1867   -0.3569    4.5394 C.3       1 <0>        -0.0810
     37 C26        -8.4935    0.3920    4.5884 C.ar      1 <0>        -0.0716
     38 C27        -8.4973    1.7663    4.7373 C.ar      1 <0>        -0.1184
     39 C28        -9.6960    2.4533    4.7822 C.ar      1 <0>        -0.1191
     40 C29       -10.8909    1.7661    4.6778 C.ar      1 <0>        -0.1321
     41 C30       -10.8870    0.3919    4.5280 C.ar      1 <0>        -0.1189
     42 C31        -9.6882   -0.2946    4.4788 C.ar      1 <0>        -0.1180
     43 O5         -4.4852    0.0972    0.7859 O.3       1 <0>        -1.0812
     44 H4          1.0039    1.9031    0.0027 H         1 <0>         0.0450
     45 H5         -0.5459    1.8868   -0.8726 H         1 <0>         0.0557
     46 H6         -0.5289    1.8773    0.9072 H         1 <0>         0.0563
     47 H7          0.5123   -0.3556   -0.8948 H         1 <0>         0.0548
     48 H8          0.5293   -0.3651    0.8851 H         1 <0>         0.0548
     49 H9         -1.9435   -0.1821    0.9097 H         1 <0>         0.0832
     50 H10        -1.9605   -0.1726   -0.8702 H         1 <0>         0.0709
     51 H11        -0.9024   -2.4150   -0.8923 H         1 <0>         0.0688
     52 H12        -0.8854   -2.4246    0.8875 H         1 <0>         0.0726
     53 H13        -2.0530   -4.1111   -1.9768 H         1 <0>         0.3920
     54 H14        -3.9852   -6.0958   -2.7842 H         1 <0>         0.0703
     55 H15        -3.6845   -7.6847   -2.0403 H         1 <0>         0.0645
     56 H16        -4.7544   -5.2483   -0.5476 H         1 <0>         0.0896
     57 H17        -4.5010   -8.1917    0.2199 H         1 <0>         0.0397
     58 H18        -3.4912   -6.8655    0.8443 H         1 <0>         0.0759
     59 H19        -5.3193   -7.4134    2.4275 H         1 <0>         0.0472
     60 H20        -5.5095   -5.7676    1.7767 H         1 <0>         0.0710
     61 H21        -6.9406   -8.2623    0.7544 H         1 <0>         0.0507
     62 H22        -7.6688   -6.9865    1.7595 H         1 <0>         0.0525
     63 H23        -8.2039   -6.6450   -0.6375 H         1 <0>         0.0523
     64 H24        -7.1940   -5.3189   -0.0131 H         1 <0>         0.0751
     65 H25        -6.3757   -6.0972   -2.2207 H         1 <0>         0.0565
     66 H26        -6.1855   -7.7430   -1.5699 H         1 <0>         0.0500
     67 H27         0.1022   -4.9607   -1.8922 H         1 <0>         0.0810
     68 H28         0.2701   -6.4265   -0.8963 H         1 <0>         0.0844
     69 H29         1.1577   -7.6572   -2.8575 H         1 <0>         0.0898
     70 H30         0.9897   -6.1914   -3.8533 H         1 <0>         0.0990
     71 H31         5.6583   -5.8224   -2.4892 H         1 <0>         0.1392
     72 H32         7.2269   -6.7772   -4.1593 H         1 <0>         0.1388
     73 H33         6.3014   -8.1374   -6.0239 H         1 <0>         0.1363
     74 H34         3.8737   -8.4998   -6.1649 H         1 <0>         0.1582
     75 H35        -1.6011   -4.9827   -3.6462 H         1 <0>         0.3725
     76 H36        -5.5203   -2.2133    3.4406 H         1 <0>         0.0691
     77 H37        -4.6351   -0.6816    3.6370 H         1 <0>         0.0686
     78 H38        -6.5644    0.5548    2.6895 H         1 <0>         0.0697
     79 H39        -7.4496   -0.9769    2.4931 H         1 <0>         0.0726
     80 H40        -7.3280   -1.3608    4.9398 H         1 <0>         0.0647
     81 H41        -6.4428    0.1709    5.1362 H         1 <0>         0.0646
     82 H42        -7.5638    2.3033    4.8188 H         1 <0>         0.1208
     83 H43        -9.6990    3.5270    4.8992 H         1 <0>         0.1196
     84 H44       -11.8274    2.3028    4.7136 H         1 <0>         0.1181
     85 H45       -11.8205   -0.1451    4.4468 H         1 <0>         0.1196
     86 H46        -9.6851   -1.3679    4.3580 H         1 <0>         0.1206
@<TRIPOS>BOND
     1    1    2 1
     2    1   44 1
     3    1   45 1
     4    1   46 1
     5    2    3 1
     6    2   47 1
     7    2   48 1
     8    3    4 1
     9    3   49 1
    10    3   50 1
    11    4    5 1
    12    4   51 1
    13    4   52 1
    14    5    6 1
    15    5    7 1
    16    5   31 1
    17    7    8 2
    18    7    9 am
    19    9   10 1
    20    9   53 1
    21   10   11 1
    22   10   12 1
    23   10   19 1
    24   12   13 1
    25   12   54 1
    26   12   55 1
    27   13   18 1
    28   13   14 1
    29   13   56 1
    30   14   15 1
    31   14   57 1
    32   14   58 1
    33   15   16 1
    34   15   59 1
    35   15   60 1
    36   16   17 1
    37   16   61 1
    38   16   62 1
    39   17   18 1
    40   17   63 1
    41   17   64 1
    42   18   65 1
    43   18   66 1
    44   19   20 1
    45   19   21 1
    46   19   30 1
    47   21   22 1
    48   21   67 1
    49   21   68 1
    50   22   23 1
    51   22   69 1
    52   22   70 1
    53   23   24 1
    54   24   29 ar
    55   24   25 ar
    56   25   26 ar
    57   25   71 1
    58   26   27 ar
    59   26   72 1
    60   27   28 ar
    61   27   73 1
    62   28   29 ar
    63   28   74 1
    64   30   75 1
    65   31   32 1
    66   32   33 2
    67   32   34 1
    68   32   43 1
    69   34   35 1
    70   34   76 1
    71   34   77 1
    72   35   36 1
    73   35   78 1
    74   35   79 1
    75   36   37 1
    76   36   80 1
    77   36   81 1
    78   37   42 ar
    79   37   38 ar
    80   38   39 ar
    81   38   82 1
    82   39   40 ar
    83   39   83 1
    84   40   41 ar
    85   40   84 1
    86   41   42 ar
    87   41   85 1
    88   42   86 1
@<TRIPOS>MOLECULE
CHEMBL148073__1
   86    88     0     0     0
SMALL
USER_CHARGES

@<TRIPOS>ATOM
      1 C1         -0.0187    1.5258    0.0104 C.3       1 <0>        -0.1517
      2 C2          0.0021   -0.0041    0.0020 C.3       1 <0>        -0.1197
      3 C3         -1.4333   -0.5336    0.0129 C.3       1 <0>        -0.1240
      4 C4         -1.4126   -2.0635    0.0045 C.3       1 <0>        -0.1237
      5 C5         -2.8479   -2.5931    0.0153 C.3       1 <0>         0.1536
      6 H1         -3.4008   -2.1613   -0.8189 H         1 <0>         0.0843
      7 C6         -2.8306   -4.0942   -0.1167 C.2       1 <0>         0.5065
      8 O1         -3.2293   -4.7878    0.7948 O.2       1 <0>        -0.4997
      9 N1         -2.3719   -4.6659   -1.2478 N.am      1 <0>        -0.7320
     10 C7         -2.3550   -6.1251   -1.3762 C.3       1 <0>         0.1140
     11 H2         -2.1324   -6.5726   -0.4075 H         1 <0>         0.0996
     12 C8         -3.7230   -6.6104   -1.8598 C.3       1 <0>        -0.1183
     13 C9         -4.7772   -6.3102   -0.7923 C.3       1 <0>        -0.0903
     14 C10        -4.4781   -7.1297    0.4646 C.3       1 <0>        -0.1007
     15 C11        -5.5324   -6.8295    1.5320 C.3       1 <0>        -0.1156
     16 C12        -6.9178   -7.2004    0.9991 C.3       1 <0>        -0.1152
     17 C13        -7.2169   -6.3808   -0.2578 C.3       1 <0>        -0.1234
     18 C14        -6.1627   -6.6811   -1.3253 C.3       1 <0>        -0.1082
     19 C15        -1.2818   -6.5358   -2.3864 C.3       1 <0>         0.1103
     20 H3         -1.2693   -7.6216   -2.4819 H         1 <0>         0.1128
     21 C16         0.0862   -6.0505   -1.9028 C.3       1 <0>        -0.1405
     22 C17         1.1736   -6.5673   -2.8469 C.3       1 <0>        -0.0865
     23 S1          2.7956   -5.9920   -2.2735 S.3       1 <0>        -0.0797
     24 C18         3.9251   -6.6610   -3.4488 C.ar      1 <0>         0.1235
     25 C19         5.2888   -6.4180   -3.3109 C.ar      1 <0>        -0.1528
     26 C20         6.1637   -6.9492   -4.2404 C.ar      1 <0>        -0.0587
     27 C21         5.6447   -7.7088   -5.2813 C.ar      1 <0>        -0.1836
     28 C22         4.2813   -7.9099   -5.3572 C.ar      1 <0>         0.1146
     29 N2          3.4697   -7.3953   -4.4528 N.ar      1 <0>        -0.4904
     30 O2         -1.5737   -5.9493   -3.6563 O.3       1 <0>        -0.5510
     31 O3         -3.4802   -2.2303    1.2444 O.3       1 <0>        -0.7350
     32 P1         -4.8059   -1.3193    1.3131 P.3       1 <0>         2.2624
     33 O4         -5.9130   -1.9544    0.4425 O.2       1 <0>        -1.0859
     34 C23        -5.3790   -1.2095    3.0402 C.3       1 <0>        -0.7272
     35 C24        -6.7057   -0.4491    3.0899 C.3       1 <0>        -0.0836
     36 C25        -7.1867   -0.3569    4.5394 C.3       1 <0>        -0.0810
     37 C26        -8.4935    0.3920    4.5884 C.ar      1 <0>        -0.0716
     38 C27        -8.4973    1.7663    4.7373 C.ar      1 <0>        -0.1184
     39 C28        -9.6960    2.4533    4.7822 C.ar      1 <0>        -0.1191
     40 C29       -10.8909    1.7661    4.6778 C.ar      1 <0>        -0.1321
     41 C30       -10.8870    0.3919    4.5280 C.ar      1 <0>        -0.1189
     42 C31        -9.6882   -0.2946    4.4788 C.ar      1 <0>        -0.1180
     43 O5         -4.4852    0.0972    0.7859 O.3       1 <0>        -1.0812
     44 H4          1.0039    1.9031    0.0027 H         1 <0>         0.0450
     45 H5         -0.5459    1.8868   -0.8726 H         1 <0>         0.0557
     46 H6         -0.5289    1.8773    0.9072 H         1 <0>         0.0563
     47 H7          0.5123   -0.3556   -0.8948 H         1 <0>         0.0548
     48 H8          0.5293   -0.3651    0.8851 H         1 <0>         0.0548
     49 H9         -1.9435   -0.1821    0.9097 H         1 <0>         0.0832
     50 H10        -1.9605   -0.1726   -0.8702 H         1 <0>         0.0709
     51 H11        -0.9024   -2.4150   -0.8923 H         1 <0>         0.0688
     52 H12        -0.8854   -2.4246    0.8875 H         1 <0>         0.0726
     53 H13        -2.0530   -4.1111   -1.9768 H         1 <0>         0.3920
     54 H14        -3.9852   -6.0958   -2.7842 H         1 <0>         0.0703
     55 H15        -3.6845   -7.6847   -2.0403 H         1 <0>         0.0645
     56 H16        -4.7544   -5.2483   -0.5476 H         1 <0>         0.0896
     57 H17        -4.5010   -8.1917    0.2199 H         1 <0>         0.0397
     58 H18        -3.4912   -6.8655    0.8443 H         1 <0>         0.0759
     59 H19        -5.3193   -7.4134    2.4275 H         1 <0>         0.0472
     60 H20        -5.5095   -5.7676    1.7767 H         1 <0>         0.0710
     61 H21        -6.9406   -8.2623    0.7544 H         1 <0>         0.0507
     62 H22        -7.6688   -6.9865    1.7595 H         1 <0>         0.0525
     63 H23        -8.2039   -6.6450   -0.6375 H         1 <0>         0.0523
     64 H24        -7.1940   -5.3189   -0.0131 H         1 <0>         0.0751
     65 H25        -6.3757   -6.0972   -2.2207 H         1 <0>         0.0565
     66 H26        -6.1855   -7.7430   -1.5699 H         1 <0>         0.0500
     67 H27         0.1022   -4.9607   -1.8922 H         1 <0>         0.0810
     68 H28         0.2701   -6.4265   -0.8963 H         1 <0>         0.0844
     69 H29         1.1577   -7.6572   -2.8575 H         1 <0>         0.0898
     70 H30         0.9897   -6.1914   -3.8533 H         1 <0>         0.0990
     71 H31         5.6583   -5.8224   -2.4892 H         1 <0>         0.1392
     72 H32         7.2269   -6.7772   -4.1593 H         1 <0>         0.1388
     73 H33         6.3014   -8.1374   -6.0239 H         1 <0>         0.1363
     74 H34         3.8737   -8.4998   -6.1649 H         1 <0>         0.1582
     75 H35        -1.6011   -4.9827   -3.6462 H         1 <0>         0.3725
     76 H36        -5.5203   -2.2133    3.4406 H         1 <0>         0.0691
     77 H37        -4.6351   -0.6816    3.6370 H         1 <0>         0.0686
     78 H38        -6.5644    0.5548    2.6895 H         1 <0>         0.0697
     79 H39        -7.4496   -0.9769    2.4931 H         1 <0>         0.0726
     80 H40        -7.3280   -1.3608    4.9398 H         1 <0>         0.0647
     81 H41        -6.4428    0.1709    5.1362 H         1 <0>         0.0646
     82 H42        -7.5638    2.3033    4.8188 H         1 <0>         0.1208
     83 H43        -9.6990    3.5270    4.8992 H         1 <0>         0.1196
     84 H44       -11.8274    2.3028    4.7136 H         1 <0>         0.1181
     85 H45       -11.8205   -0.1451    4.4468 H         1 <0>         0.1196
     86 H46        -9.6851   -1.3679    4.3580 H         1 <0>         0.1206
@<TRIPOS>BOND
     1    1    2 1
     2    1   44 1
     3    1   45 1
     4    1   46 1
     5    2    3 1
     6    2   47 1
     7    2   48 1
     8    3    4 1
     9    3   49 1
    10    3   50 1
    11    4    5 1
    12    4   51 1
    13    4   52 1
    14    5    6 1
    15    5    7 1
    16    5   31 1
    17    7    8 2
    18    7    9 am
    19    9   10 1
    20    9   53 1
    21   10   11 1
    22   10   12 1
    23   10   19 1
    24   12   13 1
    25   12   54 1
    26   12   55 1
    27   13   18 1
    28   13   14 1
    29   13   56 1
    30   14   15 1
    31   14   57 1
    32   14   58 1
    33   15   16 1
    34   15   59 1
    35   15   60 1
    36   16   17 1
    37   16   61 1
    38   16   62 1
    39   17   18 1
    40   17   63 1
    41   17   64 1
    42   18   65 1
    43   18   66 1
    44   19   20 1
    45   19   21 1
    46   19   30 1
    47   21   22 1
    48   21   67 1
    49   21   68 1
    50   22   23 1
    51   22   69 1
    52   22   70 1
    53   23   24 1
    54   24   29 ar
    55   24   25 ar
    56   25   26 ar
    57   25   71 1
    58   26   27 ar
    59   26   72 1
    60   27   28 ar
    61   27   73 1
    62   28   29 ar
    63   28   74 1
    64   30   75 1
    65   31   32 1
    66   32   33 2
    67   32   34 1
    68   32   43 1
    69   34   35 1
    70   34   76 1
    71   34   77 1
    72   35   36 1
    73   35   78 1
    74   35   79 1
    75   36   37 1
    76   36   80 1
    77   36   81 1
    78   37   42 ar
    79   37   38 ar
    80   38   39 ar
    81   38   82 1
    82   39   40 ar
    83   39   83 1
    84   40   41 ar
    85   40   84 1
    86   41   42 ar
    87   41   85 1
    88   42   86 1
@<TRIPOS>MOLECULE
CHEMBL31587
   72    76     0     0     0
SMALL
USER_CHARGES

@<TRIPOS>ATOM
      1 C1         -0.0167    1.3781    0.0096 C.ar      1 <0>        -0.1195
      2 C2          1.1709    2.0855    0.0021 C.ar      1 <0>        -0.1177
      3 C3          2.3773    1.4107   -0.0130 C.ar      1 <0>        -0.1150
      4 C4          2.3960    0.0285   -0.0201 C.ar      1 <0>        -0.0881
      5 C5          1.2084   -0.6789   -0.0117 C.ar      1 <0>        -0.1150
      6 C6          0.0021   -0.0041    0.0020 C.ar      1 <0>        -0.1174
      7 C7          3.7112   -0.7071   -0.0376 C.3       1 <0>        -0.0767
      8 C8          4.1714   -0.9633    1.3989 C.3       1 <0>         0.0682
      9 O1          5.4184   -1.6609    1.3824 O.3       1 <0>        -0.3833
     10 C9          5.9393   -1.9511    2.6810 C.3       1 <0>         0.0630
     11 C10         7.2691   -2.6950    2.5425 C.3       1 <0>         0.0614
     12 O2          8.2340   -1.8362    1.9315 O.3       1 <0>        -0.3029
     13 C11         9.4778   -2.3472    1.7345 C.ar      1 <0>         0.1464
     14 C12         9.7620   -3.6503    2.1161 C.ar      1 <0>        -0.2054
     15 C13        11.0270   -4.1676    1.9143 C.ar      1 <0>        -0.0553
     16 C14        12.0095   -3.3875    1.3330 C.ar      1 <0>        -0.1293
     17 C15        11.7288   -2.0883    0.9521 C.ar      1 <0>        -0.0780
     18 C16        10.4637   -1.5685    1.1461 C.ar      1 <0>        -0.1487
     19 C17        13.3887   -3.9542    1.1145 C.3       1 <0>        -0.0470
     20 H1         13.4215   -4.9826    1.4743 H         1 <0>         0.1031
     21 C18        13.7243   -3.9234   -0.3794 C.3       1 <0>        -0.1396
     22 C19        15.1549   -4.4257   -0.5857 C.3       1 <0>        -0.0100
     23 N1         16.0905   -3.5627    0.1453 N.4       1 <0>        -0.4994
     24 C20        15.8204   -3.6430    1.5859 C.3       1 <0>        -0.0391
     25 C21        14.4152   -3.1118    1.8773 C.3       1 <0>         0.0778
     26 H2         14.3457   -2.0730    1.5544 H         1 <0>         0.0856
     27 O3         14.1532   -3.1950    3.2797 O.3       1 <0>        -0.3426
     28 C22        14.5301   -2.0270    4.0117 C.3       1 <0>         0.1001
     29 C23        14.2107   -2.2240    5.4712 C.ar      1 <0>        -0.0979
     30 C24        12.9586   -1.8506    5.9563 C.ar      1 <0>        -0.0997
     31 C25        12.6381   -2.0146    7.2688 C.ar      1 <0>        -0.1005
     32 C26        13.5814   -2.5690    8.1508 C.ar      1 <0>        -0.0433
     33 C27        13.2869   -2.7542    9.5124 C.ar      1 <0>        -0.1086
     34 C28        14.2252   -3.2945   10.3369 C.ar      1 <0>        -0.1071
     35 C29        15.4772   -3.6682    9.8517 C.ar      1 <0>        -0.1110
     36 C30        15.7977   -3.5037    8.5393 C.ar      1 <0>        -0.1073
     37 C31        14.8545   -2.9490    7.6574 C.ar      1 <0>        -0.0570
     38 C32        15.1471   -2.7690    6.2947 C.ar      1 <0>        -0.0772
     39 H3         -0.9591    1.9053    0.0259 H         1 <0>         0.1236
     40 H4          1.1563    3.1654    0.0076 H         1 <0>         0.1238
     41 H5          3.3051    1.9634   -0.0196 H         1 <0>         0.1219
     42 H6          1.2231   -1.7588   -0.0176 H         1 <0>         0.1222
     43 H7         -0.9258   -0.5567    0.0082 H         1 <0>         0.1241
     44 H8          3.5884   -1.6586   -0.5549 H         1 <0>         0.0808
     45 H9          4.4573   -0.1052   -0.5563 H         1 <0>         0.0810
     46 H10         4.2941   -0.0118    1.9163 H         1 <0>         0.0530
     47 H11         3.4252   -1.5652    1.9176 H         1 <0>         0.0527
     48 H12         6.0988   -1.0201    3.2249 H         1 <0>         0.0631
     49 H13         5.2299   -2.5735    3.2263 H         1 <0>         0.0754
     50 H14         7.6224   -2.9944    3.5293 H         1 <0>         0.0804
     51 H15         7.1271   -3.5807    1.9233 H         1 <0>         0.0747
     52 H16         8.9952   -4.2598    2.5709 H         1 <0>         0.1312
     53 H17        11.2488   -5.1820    2.2113 H         1 <0>         0.1252
     54 H18        12.4981   -1.4809    0.4986 H         1 <0>         0.1208
     55 H19        10.2437   -0.5550    0.8444 H         1 <0>         0.1334
     56 H20        13.0310   -4.5666   -0.9214 H         1 <0>         0.1224
     57 H21        13.6401   -2.9020   -0.7504 H         1 <0>         0.0930
     58 H22        15.2379   -5.4472   -0.2146 H         1 <0>         0.1341
     59 H23        15.3970   -4.4053   -1.6482 H         1 <0>         0.1388
     60 H24        17.0362   -3.8641   -0.0358 H         1 <0>         0.4351
     61 H25        15.8893   -4.6812    1.9107 H         1 <0>         0.1410
     62 H26        16.5539   -3.0447    2.1265 H         1 <0>         0.1338
     63 H27        15.5999   -1.8540    3.8940 H         1 <0>         0.0605
     64 H28        13.9790   -1.1667    3.6320 H         1 <0>         0.0686
     65 H29        12.2318   -1.4244    5.2806 H         1 <0>         0.1226
     66 H30        11.6642   -1.7200    7.6307 H         1 <0>         0.1308
     67 H31        12.3210   -2.4690    9.9025 H         1 <0>         0.1305
     68 H32        13.9964   -3.4354   11.3829 H         1 <0>         0.1280
     69 H33        16.2040   -4.0943   10.5274 H         1 <0>         0.1273
     70 H34        16.7720   -3.7975    8.1776 H         1 <0>         0.1276
     71 H35        16.1116   -3.0580    5.9038 H         1 <0>         0.1251
     72 H36        15.9785   -2.6089   -0.1641 H         1 <0>         0.4276
@<TRIPOS>BOND
     1    1    6 ar
     2    1    2 ar
     3    1   39 1
     4    2    3 ar
     5    2   40 1
     6    3    4 ar
     7    3   41 1
     8    4    5 ar
     9    4    7 1
    10    5    6 ar
    11    5   42 1
    12    6   43 1
    13    7    8 1
    14    7   44 1
    15    7   45 1
    16    8    9 1
    17    8   46 1
    18    8   47 1
    19    9   10 1
    20   10   11 1
    21   10   48 1
    22   10   49 1
    23   11   12 1
    24   11   50 1
    25   11   51 1
    26   12   13 1
    27   13   18 ar
    28   13   14 ar
    29   14   15 ar
    30   14   52 1
    31   15   16 ar
    32   15   53 1
    33   16   17 ar
    34   16   19 1
    35   17   18 ar
    36   17   54 1
    37   18   55 1
    38   19   20 1
    39   19   25 1
    40   19   21 1
    41   21   22 1
    42   21   56 1
    43   21   57 1
    44   22   23 1
    45   22   58 1
    46   22   59 1
    47   23   24 1
    48   23   60 1
    49   23   72 1
    50   24   25 1
    51   24   61 1
    52   24   62 1
    53   25   26 1
    54   25   27 1
    55   27   28 1
    56   28   29 1
    57   28   63 1
    58   28   64 1
    59   29   38 ar
    60   29   30 ar
    61   30   31 ar
    62   30   65 1
    63   31   32 ar
    64   31   66 1
    65   32   37 ar
    66   32   33 ar
    67   33   34 ar
    68   33   67 1
    69   34   35 ar
    70   34   68 1
    71   35   36 ar
    72   35   69 1
    73   36   37 ar
    74   36   70 1
    75   37   38 ar
    76   38   71 1
@<TRIPOS>MOLECULE
CHEMBL1076463
   77    81     0     0     0
SMALL
USER_CHARGES

@<TRIPOS>ATOM
      1 C1         -1.5096    2.7989   -1.8648 C.3       1 <0>        -0.1167
      2 C2         -2.0535    1.5479   -2.5053 C.ar      1 <0>        -0.0880
      3 C3         -1.3385    0.9156   -3.5043 C.ar      1 <0>        -0.0846
      4 C4         -1.8371   -0.2317   -4.0926 C.ar      1 <0>        -0.1391
      5 C5         -3.0520   -0.7498   -3.6829 C.ar      1 <0>        -0.0869
      6 C6         -3.7705   -0.1217   -2.6843 C.ar      1 <0>        -0.1972
      7 C7         -3.2697    1.0271   -2.0886 C.ar      1 <0>         0.1274
      8 O1         -3.9720    1.6438   -1.1020 O.3       1 <0>        -0.3119
      9 C8         -5.2163    1.0515   -0.7240 C.3       1 <0>         0.0277
     10 C9         -0.0141    1.4774   -3.9532 C.3       1 <0>         0.1796
     11 N1          1.0637    0.8788   -3.1620 N.am      1 <0>        -0.6677
     12 C10         1.6708   -0.3845   -3.5884 C.3       1 <0>         0.1127
     13 C11         3.0485   -0.7331   -3.0217 C.3       1 <0>        -0.2180
     14 C12         2.9086   -0.3066   -4.4843 C.3       1 <0>        -0.2201
     15 C13         1.4969    1.4903   -2.0418 C.2       1 <0>         0.5887
     16 O2          0.7977    1.5023   -1.0458 O.2       1 <0>        -0.4090
     17 C14         2.8089    2.1402   -2.0230 C.2       1 <0>        -0.2284
     18 C15         3.1102    2.9638   -1.0093 C.2       1 <0>         0.0391
     19 C16         4.4399    3.6616   -0.9210 C.3       1 <0>        -0.1222
     20 C17         5.1324    3.6295   -2.2850 C.3       1 <0>        -0.0068
     21 N2          5.1414    2.2381   -2.7612 N.4       1 <0>        -0.5041
     22 C18         3.7765    1.8574   -3.1381 C.3       1 <0>        -0.0334
     23 C19         2.1112    3.1922    0.0475 C.ar      1 <0>        -0.0831
     24 C20         0.9020    3.8267   -0.2538 C.ar      1 <0>        -0.0676
     25 C21        -0.0287    4.0371    0.7416 C.ar      1 <0>        -0.1070
     26 C22         0.2313    3.6221    2.0361 C.ar      1 <0>        -0.0539
     27 C23         1.4257    2.9935    2.3422 C.ar      1 <0>        -0.1122
     28 C24         2.3641    2.7707    1.3566 C.ar      1 <0>        -0.0893
     29 C25        -0.7912    3.8565    3.1180 C.3       1 <0>        -0.0838
     30 C26        -1.7370    2.6563    3.1945 C.3       1 <0>        -0.1090
     31 C27        -2.7751    2.8942    4.2930 C.3       1 <0>         0.0635
     32 O3         -3.6584    1.7732    4.3644 O.3       1 <0>        -0.3128
     33 C28        -4.6472    1.8248    5.2965 C.ar      1 <0>         0.1006
     34 C29        -4.4230    1.3337    6.5764 C.ar      1 <0>         0.0858
     35 C30        -5.4297    1.3876    7.5232 C.ar      1 <0>        -0.1052
     36 C31        -6.6595    1.9293    7.1969 C.ar      1 <0>        -0.1156
     37 C32        -6.8863    2.4192    5.9223 C.ar      1 <0>         0.1166
     38 C33        -5.8792    2.3731    4.9725 C.ar      1 <0>        -0.0753
     39 Cl1        -6.1613    2.9938    3.3760 Cl        1 <0>        -0.0206
     40 F1         -8.0890    2.9471    5.6060 F         1 <0>        -0.1148
     41 F2         -3.2222    0.8034    6.8961 F         1 <0>        -0.1186
     42 H1         -0.9973    2.5395   -0.9384 H         1 <0>         0.0967
     43 H2         -0.8076    3.2801   -2.5458 H         1 <0>         0.0498
     44 H3         -2.3306    3.4820   -1.6470 H         1 <0>         0.0647
     45 H4         -1.2770   -0.7241   -4.8738 H         1 <0>         0.1206
     46 H5         -3.4396   -1.6460   -4.1443 H         1 <0>         0.1253
     47 H6         -4.7193   -0.5266   -2.3647 H         1 <0>         0.1284
     48 H7         -5.8831    1.0255   -1.5858 H         1 <0>         0.0561
     49 H8         -5.0422    0.0359   -0.3686 H         1 <0>         0.0567
     50 H9         -5.6728    1.6413    0.0709 H         1 <0>         0.1000
     51 H10         0.1390    1.2484   -5.0078 H         1 <0>         0.0922
     52 H11        -0.0113    2.5582   -3.8121 H         1 <0>         0.0842
     53 H12         0.9750   -1.2055   -3.7616 H         1 <0>         0.1313
     54 H13         3.5032   -0.0225   -2.3315 H         1 <0>         0.1064
     55 H14         3.2593   -1.7836   -2.8217 H         1 <0>         0.1219
     56 H15         3.0274   -1.0765   -5.2467 H         1 <0>         0.1193
     57 H16         3.2713    0.6846   -4.7564 H         1 <0>         0.1095
     58 H17         4.2864    4.6970   -0.6167 H         1 <0>         0.1357
     59 H18         5.0658    3.1572   -0.1848 H         1 <0>         0.1189
     60 H19         4.5855    4.2558   -2.9898 H         1 <0>         0.1366
     61 H20         6.1559    3.9910   -2.1863 H         1 <0>         0.1452
     62 H21         5.7497    2.1582   -3.5622 H         1 <0>         0.4379
     63 H22         3.7511    0.7934   -3.3733 H         1 <0>         0.2035
     64 H23         3.4814    2.4243   -4.0210 H         1 <0>         0.1411
     65 H24         0.6978    4.1513   -1.2634 H         1 <0>         0.1152
     66 H25        -0.9629    4.5273    0.5105 H         1 <0>         0.1268
     67 H26         1.6216    2.6729    3.3547 H         1 <0>         0.1270
     68 H27         3.2938    2.2760    1.5961 H         1 <0>         0.1194
     69 H28        -0.2851    3.9819    4.0752 H         1 <0>         0.0795
     70 H29        -1.3630    4.7557    2.8889 H         1 <0>         0.0798
     71 H30        -2.2431    2.5309    2.2373 H         1 <0>         0.0799
     72 H31        -1.1651    1.7571    3.4237 H         1 <0>         0.0762
     73 H32        -2.2690    3.0196    5.2502 H         1 <0>         0.0597
     74 H33        -3.3469    3.7934    4.0638 H         1 <0>         0.0616
     75 H34        -5.2554    1.0057    8.5183 H         1 <0>         0.1613
     76 H35        -7.4444    1.9700    7.9376 H         1 <0>         0.1629
     77 H36         5.4675    1.6302   -2.0248 H         1 <0>         0.4299
@<TRIPOS>BOND
     1    1    2 1
     2    1   42 1
     3    1   43 1
     4    1   44 1
     5    2    7 ar
     6    2    3 ar
     7    3    4 ar
     8    3   10 1
     9    4    5 ar
    10    4   45 1
    11    5    6 ar
    12    5   46 1
    13    6    7 ar
    14    6   47 1
    15    7    8 1
    16    8    9 1
    17    9   48 1
    18    9   49 1
    19    9   50 1
    20   10   11 1
    21   10   51 1
    22   10   52 1
    23   11   12 1
    24   11   15 am
    25   12   14 1
    26   12   13 1
    27   12   53 1
    28   13   14 1
    29   13   54 1
    30   13   55 1
    31   14   56 1
    32   14   57 1
    33   15   16 2
    34   15   17 1
    35   17   22 1
    36   17   18 2
    37   18   19 1
    38   18   23 1
    39   19   20 1
    40   19   58 1
    41   19   59 1
    42   20   21 1
    43   20   60 1
    44   20   61 1
    45   21   22 1
    46   21   62 1
    47   21   77 1
    48   22   63 1
    49   22   64 1
    50   23   28 ar
    51   23   24 ar
    52   24   25 ar
    53   24   65 1
    54   25   26 ar
    55   25   66 1
    56   26   27 ar
    57   26   29 1
    58   27   28 ar
    59   27   67 1
    60   28   68 1
    61   29   30 1
    62   29   69 1
    63   29   70 1
    64   30   31 1
    65   30   71 1
    66   30   72 1
    67   31   32 1
    68   31   73 1
    69   31   74 1
    70   32   33 1
    71   33   38 ar
    72   33   34 ar
    73   34   35 ar
    74   34   41 1
    75   35   36 ar
    76   35   75 1
    77   36   37 ar
    78   36   76 1
    79   37   38 ar
    80   37   40 1
    81   38   39 1
@<TRIPOS>MOLECULE
CHEMBL1076463__1
   76    80     0     0     0
SMALL
USER_CHARGES

@<TRIPOS>ATOM
      1 C1         -1.5154    2.8251   -1.8999 C.3       1 <0>        -0.1189
      2 C2         -2.0639    1.5684   -2.5252 C.ar      1 <0>        -0.0834
      3 C3         -1.3496    0.9195   -3.5139 C.ar      1 <0>        -0.0756
      4 C4         -1.8525   -0.2331   -4.0883 C.ar      1 <0>        -0.1386
      5 C5         -3.0710   -0.7397   -3.6747 C.ar      1 <0>        -0.0912
      6 C6         -3.7887   -0.0949   -2.6864 C.ar      1 <0>        -0.2024
      7 C7         -3.2837    1.0592   -2.1046 C.ar      1 <0>         0.1237
      8 O1         -3.9854    1.6923   -1.1281 O.3       1 <0>        -0.3114
      9 C8         -5.2335    1.1112   -0.7453 C.3       1 <0>         0.0296
     10 C9         -0.0214    1.4687   -3.9670 C.3       1 <0>         0.1805
     11 N1          1.0517    0.8741   -3.1663 N.am      1 <0>        -0.6657
     12 C10         1.6556   -0.3954   -3.5785 C.3       1 <0>         0.1029
     13 C11         3.0284   -0.7452   -3.0005 C.3       1 <0>        -0.2076
     14 C12         2.8991   -0.3305   -4.4676 C.3       1 <0>        -0.2140
     15 C13         1.4833    1.4949   -2.0507 C.2       1 <0>         0.5898
     16 O2          0.7808    1.5190   -1.0572 O.2       1 <0>        -0.4385
     17 C14         2.7975    2.1404   -2.0338 C.2       1 <0>        -0.1901
     18 C15         3.0956    2.9751   -1.0291 C.2       1 <0>         0.0143
     19 C16         4.4258    3.6703   -0.9356 C.3       1 <0>        -0.0831
     20 C17         5.1333    3.6292   -2.2917 C.3       1 <0>         0.0497
     21 N2          5.1294    2.2360   -2.7642 N.3       1 <0>        -0.6805
     22 C18         3.7684    1.8391   -3.1411 C.3       1 <0>         0.0295
     23 C19         2.0886    3.2199    0.0164 C.ar      1 <0>        -0.0468
     24 C20         0.8843    3.8550   -0.3027 C.ar      1 <0>        -0.0771
     25 C21        -0.0539    4.0808    0.6823 C.ar      1 <0>        -0.1084
     26 C22         0.1938    3.6806    1.9838 C.ar      1 <0>        -0.0777
     27 C23         1.3833    3.0514    2.3075 C.ar      1 <0>        -0.1123
     28 C24         2.3290    2.8134    1.3326 C.ar      1 <0>        -0.0982
     29 C25        -0.8368    3.9317    3.0542 C.3       1 <0>        -0.0753
     30 C26        -1.7877    2.7359    3.1372 C.3       1 <0>        -0.1100
     31 C27        -2.8340    2.9909    4.2240 C.3       1 <0>         0.0652
     32 O3         -3.7221    1.8740    4.3016 O.3       1 <0>        -0.3128
     33 C28        -4.7184    1.9405    5.2246 C.ar      1 <0>         0.1039
     34 C29        -4.5067    1.4641    6.5122 C.ar      1 <0>         0.0855
     35 C30        -5.5212    1.5330    7.4497 C.ar      1 <0>        -0.1067
     36 C31        -6.7462    2.0752    7.1066 C.ar      1 <0>        -0.1183
     37 C32        -6.9605    2.5504    5.8243 C.ar      1 <0>         0.1148
     38 C33        -5.9456    2.4892    4.8837 C.ar      1 <0>        -0.0759
     39 Cl1        -6.2121    3.0916    3.2775 Cl        1 <0>        -0.0191
     40 F1         -8.1585    3.0788    5.4915 F         1 <0>        -0.1166
     41 F2         -3.3107    0.9333    6.8484 F         1 <0>        -0.1178
     42 H1         -1.0063    2.5754   -0.9690 H         1 <0>         0.1022
     43 H2         -0.8096    3.2939   -2.5856 H         1 <0>         0.0522
     44 H3         -2.3336    3.5149   -1.6929 H         1 <0>         0.0605
     45 H4         -1.2929   -0.7385   -4.8615 H         1 <0>         0.1202
     46 H5         -3.4619   -1.6401   -4.1252 H         1 <0>         0.1220
     47 H6         -4.7403   -0.4909   -2.3638 H         1 <0>         0.1247
     48 H7         -5.8983    1.0771   -1.6084 H         1 <0>         0.0532
     49 H8         -5.0653    0.0996   -0.3761 H         1 <0>         0.0548
     50 H9         -5.6890    1.7138    0.0406 H         1 <0>         0.0967
     51 H10         0.1325    1.2261   -5.0184 H         1 <0>         0.0870
     52 H11        -0.0131    2.5512   -3.8389 H         1 <0>         0.0800
     53 H12         0.9573   -1.2148   -3.7489 H         1 <0>         0.1196
     54 H13         3.4822   -0.0308   -2.3137 H         1 <0>         0.1285
     55 H14         3.2335   -1.7949   -2.7905 H         1 <0>         0.1064
     56 H15         3.0190   -1.1074   -5.2226 H         1 <0>         0.1031
     57 H16         3.2678    0.6568   -4.7459 H         1 <0>         0.1155
     58 H17         4.2717    4.7078   -0.6392 H         1 <0>         0.0843
     59 H18         5.0438    3.1700   -0.1900 H         1 <0>         0.0945
     60 H19         4.6017    4.2608   -3.0035 H         1 <0>         0.0373
     61 H20         6.1601    3.9779   -2.1820 H         1 <0>         0.0835
     62 H21         5.7690    2.1138   -3.5350 H         1 <0>         0.3483
     63 H22         3.7500    0.7702   -3.3540 H         1 <0>         0.1573
     64 H23         3.4734    2.3866   -4.0363 H         1 <0>         0.0403
     65 H24         0.6898    4.1682   -1.3178 H         1 <0>         0.1106
     66 H25        -0.9843    4.5715    0.4375 H         1 <0>         0.1191
     67 H26         1.5695    2.7424    3.3254 H         1 <0>         0.1197
     68 H27         3.2548    2.3183    1.5858 H         1 <0>         0.1183
     69 H28        -0.3383    4.0668    4.0141 H         1 <0>         0.0741
     70 H29        -1.4034    4.8302    2.8094 H         1 <0>         0.0743
     71 H30        -2.2862    2.6008    2.1774 H         1 <0>         0.0799
     72 H31        -1.2211    1.8375    3.3820 H         1 <0>         0.0762
     73 H32        -2.3355    3.1260    5.1838 H         1 <0>         0.0587
     74 H33        -3.4006    3.8893    3.9792 H         1 <0>         0.0605
     75 H34        -5.3566    1.1626    8.4508 H         1 <0>         0.1599
     76 H35        -7.5370    2.1277    7.8402 H         1 <0>         0.1610
@<TRIPOS>BOND
     1    1    2 1
     2    1   42 1
     3    1   43 1
     4    1   44 1
     5    2    7 ar
     6    2    3 ar
     7    3    4 ar
     8    3   10 1
     9    4    5 ar
    10    4   45 1
    11    5    6 ar
    12    5   46 1
    13    6    7 ar
    14    6   47 1
    15    7    8 1
    16    8    9 1
    17    9   48 1
    18    9   49 1
    19    9   50 1
    20   10   11 1
    21   10   51 1
    22   10   52 1
    23   11   12 1
    24   11   15 am
    25   12   14 1
    26   12   13 1
    27   12   53 1
    28   13   14 1
    29   13   54 1
    30   13   55 1
    31   14   56 1
    32   14   57 1
    33   15   16 2
    34   15   17 1
    35   17   22 1
    36   17   18 2
    37   18   19 1
    38   18   23 1
    39   19   20 1
    40   19   58 1
    41   19   59 1
    42   20   21 1
    43   20   60 1
    44   20   61 1
    45   21   22 1
    46   21   62 1
    47   22   63 1
    48   22   64 1
    49   23   28 ar
    50   23   24 ar
    51   24   25 ar
    52   24   65 1
    53   25   26 ar
    54   25   66 1
    55   26   27 ar
    56   26   29 1
    57   27   28 ar
    58   27   67 1
    59   28   68 1
    60   29   30 1
    61   29   69 1
    62   29   70 1
    63   30   31 1
    64   30   71 1
    65   30   72 1
    66   31   32 1
    67   31   73 1
    68   31   74 1
    69   32   33 1
    70   33   38 ar
    71   33   34 ar
    72   34   35 ar
    73   34   41 1
    74   35   36 ar
    75   35   75 1
    76   36   37 ar
    77   36   76 1
    78   37   38 ar
    79   37   40 1
    80   38   39 1
@<TRIPOS>MOLECULE
CHEMBL418031
   69    73     0     0     0
SMALL
USER_CHARGES

@<TRIPOS>ATOM
      1 C1         -0.0167    1.3784    0.0096 C.ar      1 <0>        -0.1577
      2 C2          1.1698    2.0883    0.0021 C.ar      1 <0>        -0.0798
      3 C3          2.3773    1.4175   -0.0134 C.ar      1 <0>        -0.1528
      4 C4          2.3989    0.0304   -0.0210 C.ar      1 <0>         0.1280
      5 C5          1.2070   -0.6796   -0.0130 C.ar      1 <0>        -0.2114
      6 C6          0.0021   -0.0041    0.0020 C.ar      1 <0>        -0.0794
      7 O1          3.5855   -0.6319   -0.0368 O.3       1 <0>        -0.3082
      8 C7          3.5315   -2.0598   -0.0438 C.3       1 <0>         0.0615
      9 C8          4.9536   -2.6239   -0.0615 C.3       1 <0>         0.0631
     10 O2          5.6188   -2.2768    1.1546 O.3       1 <0>        -0.3745
     11 C9          6.9615   -2.7582    1.2405 C.3       1 <0>         0.0968
     12 C10         7.5632   -2.3365    2.5563 C.ar      1 <0>        -0.0767
     13 C11         8.2291   -1.1293    2.6565 C.ar      1 <0>        -0.0882
     14 C12         8.7810   -0.7425    3.8634 C.ar      1 <0>        -0.1004
     15 C13         8.6666   -1.5627    4.9703 C.ar      1 <0>        -0.0797
     16 C14         7.9999   -2.7695    4.8703 C.ar      1 <0>        -0.1226
     17 C15         7.4443   -3.1543    3.6644 C.ar      1 <0>        -0.0935
     18 C16         9.2691   -1.1414    6.2858 C.3       1 <0>        -0.0540
     19 H1          9.7501   -0.1699    6.1719 H         1 <0>         0.1053
     20 C17         8.1683   -1.0467    7.3462 C.3       1 <0>        -0.1393
     21 C18         8.7973   -0.6963    8.6965 C.3       1 <0>        -0.0097
     22 N1          9.7579   -1.7385    9.0780 N.4       1 <0>        -0.4994
     23 C19        10.8543   -1.7862    8.1033 C.3       1 <0>        -0.0389
     24 C20        10.3060   -2.1774    6.7293 C.3       1 <0>         0.0786
     25 H2          9.8360   -3.1589    6.7921 H         1 <0>         0.0861
     26 O3         11.3746   -2.2190    5.7814 O.3       1 <0>        -0.3427
     27 C21        12.0053   -3.4966    5.6722 C.3       1 <0>         0.1004
     28 C22        13.1109   -3.4254    4.6506 C.ar      1 <0>        -0.0986
     29 C23        12.8288   -3.7002    3.3136 C.ar      1 <0>        -0.1001
     30 C24        13.8041   -3.6452    2.3660 C.ar      1 <0>        -0.1000
     31 C25        15.1164   -3.3061    2.7377 C.ar      1 <0>        -0.0433
     32 C26        16.1497   -3.2386    1.7876 C.ar      1 <0>        -0.1085
     33 C27        17.4085   -2.9064    2.1843 C.ar      1 <0>        -0.1070
     34 C28        17.6905   -2.6313    3.5212 C.ar      1 <0>        -0.1107
     35 C29        16.7152   -2.6868    4.4688 C.ar      1 <0>        -0.1075
     36 C30        15.4031   -3.0262    4.0971 C.ar      1 <0>        -0.0570
     37 C31        14.3686   -3.0882    5.0464 C.ar      1 <0>        -0.0770
     38 H3         -0.9596    1.9047    0.0260 H         1 <0>         0.1253
     39 H4          1.1525    3.1682    0.0080 H         1 <0>         0.1302
     40 H5          3.3038    1.9724   -0.0200 H         1 <0>         0.1294
     41 H6          1.2211   -1.7595   -0.0193 H         1 <0>         0.1262
     42 H7         -0.9260   -0.5563    0.0082 H         1 <0>         0.1257
     43 H8          3.0134   -2.4083    0.8497 H         1 <0>         0.0714
     44 H9          2.9951   -2.3988   -0.9302 H         1 <0>         0.0807
     45 H10         4.9129   -3.7090   -0.1564 H         1 <0>         0.0747
     46 H11         5.4999   -2.2055   -0.9067 H         1 <0>         0.0650
     47 H12         6.9625   -3.8461    1.1726 H         1 <0>         0.0608
     48 H13         7.5496   -2.3426    0.4223 H         1 <0>         0.0627
     49 H14         8.3185   -0.4885    1.7918 H         1 <0>         0.1282
     50 H15         9.3019    0.2004    3.9415 H         1 <0>         0.1253
     51 H16         7.9108   -3.4104    5.7349 H         1 <0>         0.1162
     52 H17         6.9202   -4.0955    3.5872 H         1 <0>         0.1256
     53 H18         7.4567   -0.2708    7.0639 H         1 <0>         0.1232
     54 H19         7.6528   -2.0040    7.4223 H         1 <0>         0.0934
     55 H20         9.3123    0.2612    8.6194 H         1 <0>         0.1347
     56 H21         8.0163   -0.6279    9.4537 H         1 <0>         0.1395
     57 H22        10.1309   -1.5322    9.9925 H         1 <0>         0.4355
     58 H23        11.3255   -0.8054    8.0389 H         1 <0>         0.1415
     59 H24        11.5920   -2.5223    8.4227 H         1 <0>         0.1344
     60 H25        12.4216   -3.7801    6.6389 H         1 <0>         0.0606
     61 H26        11.2705   -4.2391    5.3612 H         1 <0>         0.0682
     62 H27        11.8212   -3.9610    3.0253 H         1 <0>         0.1226
     63 H28        13.5710   -3.8614    1.3339 H         1 <0>         0.1312
     64 H29        15.9461   -3.4496    0.7482 H         1 <0>         0.1308
     65 H30        18.2009   -2.8556    1.4522 H         1 <0>         0.1281
     66 H31        18.6981   -2.3705    3.8096 H         1 <0>         0.1274
     67 H32        16.9485   -2.4714    5.5011 H         1 <0>         0.1276
     68 H33        14.5714   -2.8733    6.0851 H         1 <0>         0.1250
     69 H34         9.2909   -2.6326    9.1014 H         1 <0>         0.4276
@<TRIPOS>BOND
     1    1    6 ar
     2    1    2 ar
     3    1   38 1
     4    2    3 ar
     5    2   39 1
     6    3    4 ar
     7    3   40 1
     8    4    5 ar
     9    4    7 1
    10    5    6 ar
    11    5   41 1
    12    6   42 1
    13    7    8 1
    14    8    9 1
    15    8   43 1
    16    8   44 1
    17    9   10 1
    18    9   45 1
    19    9   46 1
    20   10   11 1
    21   11   12 1
    22   11   47 1
    23   11   48 1
    24   12   17 ar
    25   12   13 ar
    26   13   14 ar
    27   13   49 1
    28   14   15 ar
    29   14   50 1
    30   15   16 ar
    31   15   18 1
    32   16   17 ar
    33   16   51 1
    34   17   52 1
    35   18   19 1
    36   18   24 1
    37   18   20 1
    38   20   21 1
    39   20   53 1
    40   20   54 1
    41   21   22 1
    42   21   55 1
    43   21   56 1
    44   22   23 1
    45   22   57 1
    46   22   69 1
    47   23   24 1
    48   23   58 1
    49   23   59 1
    50   24   25 1
    51   24   26 1
    52   26   27 1
    53   27   28 1
    54   27   60 1
    55   27   61 1
    56   28   37 ar
    57   28   29 ar
    58   29   30 ar
    59   29   62 1
    60   30   31 ar
    61   30   63 1
    62   31   36 ar
    63   31   32 ar
    64   32   33 ar
    65   32   64 1
    66   33   34 ar
    67   33   65 1
    68   34   35 ar
    69   34   66 1
    70   35   36 ar
    71   35   67 1
    72   36   37 ar
    73   37   68 1
@<TRIPOS>MOLECULE
CHEMBL398387
   54    57     0     0     0
SMALL
USER_CHARGES

@<TRIPOS>ATOM
      1 C1          0.8933   -1.6712   -0.2828 C.3       1 <0>        -0.1534
      2 C2          0.1060   -0.3844   -0.0280 C.3       1 <0>        -0.1057
      3 C3         -1.3704   -0.6722   -0.1204 C.ar      1 <0>         0.2537
      4 C4         -2.0170   -0.6540   -1.3542 C.ar      1 <0>        -0.1860
      5 C5         -3.3966   -0.9293   -1.3873 C.ar      1 <0>         0.5394
      6 N1         -4.0252   -1.1943   -0.2479 N.ar      1 <0>        -0.5743
      7 C6         -3.3684   -1.2004    0.9024 C.ar      1 <0>         0.6661
      8 N2         -2.0685   -0.9509    0.9687 N.ar      1 <0>        -0.5691
      9 N3         -4.0587   -1.4811    2.0683 N.pl3     1 <0>        -0.7907
     10 N4         -4.0866   -0.9235   -2.5867 N.pl3     1 <0>        -0.7719
     11 C7         -1.2712   -0.3519   -2.5999 C.ar      1 <0>        -0.0625
     12 C8         -0.7739    0.9316   -2.8216 C.ar      1 <0>        -0.0836
     13 C9         -0.0796    1.2118   -3.9810 C.ar      1 <0>        -0.0998
     14 C10         0.1251    0.2198   -4.9277 C.ar      1 <0>         0.1109
     15 C11        -0.3685   -1.0656   -4.7128 C.ar      1 <0>         0.1119
     16 C12        -1.0619   -1.3517   -3.5470 C.ar      1 <0>        -0.1149
     17 N5         -0.1655   -2.0775   -5.6626 N.am      1 <0>        -0.5499
     18 C13         0.7503   -1.8947   -6.6425 C.2       1 <0>         0.5414
     19 O1          0.9563   -2.7537   -7.4737 O.2       1 <0>        -0.4761
     20 C14         1.5074   -0.5886   -6.6693 C.3       1 <0>        -0.0149
     21 O2          0.8102    0.5087   -6.0709 O.3       1 <0>        -0.2553
     22 C15         3.0262   -0.6381   -6.5292 C.3       1 <0>        -0.1530
     23 C16         2.3916   -0.3006   -7.8804 C.3       1 <0>        -0.1088
     24 C17        -0.9372   -3.3209   -5.5946 C.3       1 <0>         0.0950
     25 C18        -2.2222   -3.1689   -6.4111 C.3       1 <0>         0.1034
     26 N6         -2.9939   -4.4123   -6.3431 N.am      1 <0>        -0.7329
     27 C19        -4.1713   -4.5110   -6.9916 C.2       1 <0>         0.5127
     28 O3         -4.5918   -3.5705   -7.6315 O.2       1 <0>        -0.5382
     29 C20        -4.9651   -5.7900   -6.9217 C.3       1 <0>        -0.1720
     30 H1          1.9575   -1.4792   -0.1458 H         1 <0>         0.0883
     31 H2          0.5696   -2.4402    0.4187 H         1 <0>         0.0621
     32 H3          0.7138   -2.0111   -1.3028 H         1 <0>         0.0711
     33 H4          0.3407   -0.0057    0.9668 H         1 <0>         0.1048
     34 H5          0.3781    0.3619   -0.7744 H         1 <0>         0.1242
     35 H6         -5.0096   -1.6697    2.0356 H         1 <0>         0.4456
     36 H7         -3.5916   -1.4893    2.9185 H         1 <0>         0.4307
     37 H8         -3.6193   -0.7286   -3.4141 H         1 <0>         0.4319
     38 H9         -5.0375   -1.1145   -2.6001 H         1 <0>         0.4290
     39 H10        -0.9316    1.7065   -2.0859 H         1 <0>         0.1419
     40 H11         0.3050    2.2065   -4.1515 H         1 <0>         0.1530
     41 H12        -1.4429   -2.3475   -3.3752 H         1 <0>         0.1383
     42 H13         3.5080    0.1728   -5.9828 H         1 <0>         0.1224
     43 H14         3.4901   -1.6185   -6.4217 H         1 <0>         0.1151
     44 H15         2.4379   -1.0591   -8.6618 H         1 <0>         0.1284
     45 H16         2.4557    0.7322   -8.2228 H         1 <0>         0.1244
     46 H17        -0.3434   -4.1397   -6.0007 H         1 <0>         0.1072
     47 H18        -1.1898   -3.5354   -4.5562 H         1 <0>         0.0936
     48 H19        -2.8160   -2.3500   -6.0050 H         1 <0>         0.0695
     49 H20        -1.9696   -2.9544   -7.4495 H         1 <0>         0.0772
     50 H21        -2.6576   -5.1645   -5.8313 H         1 <0>         0.4029
     51 H22        -4.4325   -6.5150   -6.3062 H         1 <0>         0.0771
     52 H23        -5.9417   -5.5879   -6.4818 H         1 <0>         0.0977
     53 H24        -5.0953   -6.1923   -7.9263 H         1 <0>         0.1004
     54 H25        -1.6224   -0.9692    1.8299 H         1 <0>         0.4420
@<TRIPOS>BOND
     1    1    2 1
     2    1   30 1
     3    1   31 1
     4    1   32 1
     5    2    3 1
     6    2   33 1
     7    2   34 1
     8    3    8 ar
     9    3    4 ar
    10    4    5 ar
    11    4   11 1
    12    5    6 ar
    13    5   10 1
    14    6    7 ar
    15    7    8 ar
    16    7    9 1
    17    8   54 1
    18    9   35 1
    19    9   36 1
    20   10   37 1
    21   10   38 1
    22   11   16 ar
    23   11   12 ar
    24   12   13 ar
    25   12   39 1
    26   13   14 ar
    27   13   40 1
    28   14   21 1
    29   14   15 ar
    30   15   16 ar
    31   15   17 1
    32   16   41 1
    33   17   18 am
    34   17   24 1
    35   18   19 2
    36   18   20 1
    37   20   23 1
    38   20   21 1
    39   20   22 1
    40   22   23 1
    41   22   42 1
    42   22   43 1
    43   23   44 1
    44   23   45 1
    45   24   25 1
    46   24   46 1
    47   24   47 1
    48   25   26 1
    49   25   48 1
    50   25   49 1
    51   26   27 am
    52   26   50 1
    53   27   28 2
    54   27   29 1
    55   29   51 1
    56   29   52 1
    57   29   53 1
@<TRIPOS>MOLECULE
CHEMBL398387__1
   53    56     0     0     0
SMALL
USER_CHARGES

@<TRIPOS>ATOM
      1 C1         -0.0187    1.5258    0.0104 C.3       1 <0>        -0.1408
      2 C2          0.0021   -0.0041    0.0020 C.3       1 <0>        -0.0814
      3 C3         -1.4117   -0.5257    0.0127 C.ar      1 <0>         0.2691
      4 C4         -2.0643   -0.7710    1.2188 C.ar      1 <0>        -0.2835
      5 C5         -3.3838   -1.2577    1.1752 C.ar      1 <0>         0.4977
      6 N1         -3.9529   -1.4632   -0.0070 N.ar      1 <0>        -0.6302
      7 C6         -3.2929   -1.2155   -1.1285 C.ar      1 <0>         0.6110
      8 N2         -2.0515   -0.7516   -1.1235 N.ar      1 <0>        -0.6024
      9 N3         -3.9201   -1.4424   -2.3408 N.pl3     1 <0>        -0.8190
     10 N4         -4.0766   -1.5181    2.3443 N.pl3     1 <0>        -0.8302
     11 C7         -1.3859   -0.5261    2.5146 C.ar      1 <0>        -0.0016
     12 C8         -0.2670   -1.2783    2.8697 C.ar      1 <0>        -0.0964
     13 C9          0.3639   -1.0495    4.0757 C.ar      1 <0>        -0.1008
     14 C10        -0.1121   -0.0728    4.9368 C.ar      1 <0>         0.0829
     15 C11        -1.2295    0.6836    4.5885 C.ar      1 <0>         0.1031
     16 C12        -1.8626    0.4597    3.3757 C.ar      1 <0>        -0.1246
     17 N5         -1.7185    1.6757    5.4510 N.am      1 <0>        -0.5454
     18 C13        -0.9468    2.1021    6.4781 C.2       1 <0>         0.5413
     19 O1         -1.3365    2.9650    7.2363 O.2       1 <0>        -0.4924
     20 C14         0.4136    1.4704    6.6513 C.3       1 <0>        -0.0077
     21 O2          0.5176    0.1428    6.1271 O.3       1 <0>        -0.2611
     22 C15         1.6395    2.3753    6.5665 C.3       1 <0>        -0.1569
     23 C16         1.2000    1.8046    7.9169 C.3       1 <0>        -0.1131
     24 C17        -3.0518    2.2456    5.2418 C.3       1 <0>         0.0956
     25 C18        -4.0843    1.4258    6.0181 C.3       1 <0>         0.1049
     26 N6         -5.4176    1.9956    5.8089 N.am      1 <0>        -0.7303
     27 C19        -6.4909    1.4339    6.3997 C.2       1 <0>         0.5121
     28 O3         -6.3528    0.4566    7.1045 O.2       1 <0>        -0.5412
     29 C20        -7.8624    2.0201    6.1846 C.3       1 <0>        -0.1727
     30 H1          1.0039    1.9031    0.0027 H         1 <0>         0.0653
     31 H2         -0.5459    1.8868   -0.8726 H         1 <0>         0.0589
     32 H3         -0.5289    1.8773    0.9072 H         1 <0>         0.0547
     33 H4          0.5123   -0.3556   -0.8948 H         1 <0>         0.0876
     34 H5          0.5293   -0.3651    0.8851 H         1 <0>         0.0889
     35 H6         -4.8300   -1.7780   -2.3609 H         1 <0>         0.4140
     36 H7         -3.4500   -1.2658   -3.1707 H         1 <0>         0.4160
     37 H8         -3.6530   -1.3654    3.2034 H         1 <0>         0.4119
     38 H9         -4.9860   -1.8535    2.3048 H         1 <0>         0.4078
     39 H10         0.1062   -2.0398    2.2009 H         1 <0>         0.1370
     40 H11         1.2304   -1.6331    4.3494 H         1 <0>         0.1433
     41 H12        -2.7267    1.0462    3.1006 H         1 <0>         0.1325
     42 H13         2.5405    1.9611    6.1141 H         1 <0>         0.1198
     43 H14         1.4699    3.4374    6.3897 H         1 <0>         0.1117
     44 H15         0.7411    2.4911    8.6283 H         1 <0>         0.1244
     45 H16         1.8118    1.0147    8.3527 H         1 <0>         0.1203
     46 H17        -3.0659    3.2765    5.5956 H         1 <0>         0.1025
     47 H18        -3.2941    2.2228    4.1793 H         1 <0>         0.0960
     48 H19        -4.0702    0.3949    5.6642 H         1 <0>         0.0720
     49 H20        -3.8420    1.4486    7.0806 H         1 <0>         0.0746
     50 H21        -5.5280    2.7773    5.2452 H         1 <0>         0.4026
     51 H22        -8.3248    1.5531    5.3150 H         1 <0>         0.0955
     52 H23        -8.4779    1.8374    7.0654 H         1 <0>         0.0957
     53 H24        -7.7765    3.0938    6.0177 H         1 <0>         0.0812
@<TRIPOS>BOND
     1    1    2 1
     2    1   30 1
     3    1   31 1
     4    1   32 1
     5    2    3 1
     6    2   33 1
     7    2   34 1
     8    3    8 ar
     9    3    4 ar
    10    4    5 ar
    11    4   11 1
    12    5    6 ar
    13    5   10 1
    14    6    7 ar
    15    7    8 ar
    16    7    9 1
    17    9   35 1
    18    9   36 1
    19   10   37 1
    20   10   38 1
    21   11   16 ar
    22   11   12 ar
    23   12   13 ar
    24   12   39 1
    25   13   14 ar
    26   13   40 1
    27   14   21 1
    28   14   15 ar
    29   15   16 ar
    30   15   17 1
    31   16   41 1
    32   17   18 am
    33   17   24 1
    34   18   19 2
    35   18   20 1
    36   20   23 1
    37   20   21 1
    38   20   22 1
    39   22   23 1
    40   22   42 1
    41   22   43 1
    42   23   44 1
    43   23   45 1
    44   24   25 1
    45   24   46 1
    46   24   47 1
    47   25   26 1
    48   25   48 1
    49   25   49 1
    50   26   27 am
    51   26   50 1
    52   27   28 2
    53   27   29 1
    54   29   51 1
    55   29   52 1
    56   29   53 1
@<TRIPOS>MOLECULE
CHEMBL394016
   56    58     0     0     0
SMALL
USER_CHARGES

@<TRIPOS>ATOM
      1 C1          0.8934   -1.6710   -0.2825 C.3       1 <0>        -0.1539
      2 C2          0.1059   -0.3842   -0.0280 C.3       1 <0>        -0.1070
      3 C3         -1.3704   -0.6721   -0.1204 C.ar      1 <0>         0.2578
      4 C4         -2.0170   -0.6540   -1.3542 C.ar      1 <0>        -0.1909
      5 C5         -3.3965   -0.9294   -1.3873 C.ar      1 <0>         0.5408
      6 N1         -4.0252   -1.1944   -0.2479 N.ar      1 <0>        -0.5737
      7 C6         -3.3684   -1.2004    0.9024 C.ar      1 <0>         0.6668
      8 N2         -2.0685   -0.9508    0.9687 N.ar      1 <0>        -0.5689
      9 N3         -4.0587   -1.4811    2.0683 N.pl3     1 <0>        -0.7898
     10 N4         -4.0865   -0.9237   -2.5867 N.pl3     1 <0>        -0.7723
     11 C7         -1.2712   -0.3519   -2.5999 C.ar      1 <0>        -0.0505
     12 C8         -0.7739    0.9315   -2.8216 C.ar      1 <0>        -0.0845
     13 C9         -0.0790    1.2148   -3.9806 C.ar      1 <0>        -0.0838
     14 C10         0.1264    0.2235   -4.9259 C.ar      1 <0>         0.0873
     15 C11        -0.3690   -1.0625   -4.7093 C.ar      1 <0>         0.1167
     16 C12        -1.0617   -1.3525   -3.5479 C.ar      1 <0>        -0.1113
     17 N5         -0.1524   -2.0529   -5.6784 N.am      1 <0>        -0.5417
     18 C13         0.7816   -1.8431   -6.6315 C.2       1 <0>         0.4990
     19 O1          0.9651   -2.6726   -7.4972 O.2       1 <0>        -0.4508
     20 C14         1.5945   -0.5737   -6.6151 C.3       1 <0>         0.0693
     21 O2          0.8112    0.4914   -6.0705 O.3       1 <0>        -0.2635
     22 C15         2.0139   -0.2189   -8.0431 C.3       1 <0>        -0.1449
     23 C16         2.8428   -0.7794   -5.7546 C.3       1 <0>         0.4404
     24 F1          3.6115   -1.8189   -6.2891 F         1 <0>        -0.1583
     25 F2          3.5977    0.3984   -5.7390 F         1 <0>        -0.1552
     26 F3          2.4607   -1.1057   -4.4490 F         1 <0>        -0.1752
     27 C17        -0.9269   -3.2962   -5.6571 C.3       1 <0>         0.0957
     28 C18        -2.1955   -3.1212   -6.4942 C.3       1 <0>         0.1035
     29 N6         -2.9700   -4.3646   -6.4728 N.am      1 <0>        -0.7330
     30 C19        -4.1347   -4.4447   -7.1464 C.2       1 <0>         0.5135
     31 O3         -4.5415   -3.4874   -7.7702 O.2       1 <0>        -0.5379
     32 C20        -4.9314   -5.7237   -7.1244 C.3       1 <0>        -0.1721
     33 H1          1.9578   -1.4781   -0.1487 H         1 <0>         0.0892
     34 H2          0.5720   -2.4389    0.4212 H         1 <0>         0.0626
     35 H3          0.7114   -2.0129   -1.3014 H         1 <0>         0.0712
     36 H4          0.3406   -0.0053    0.9667 H         1 <0>         0.1060
     37 H5          0.3780    0.3620   -0.7745 H         1 <0>         0.1242
     38 H6         -5.0096   -1.6697    2.0356 H         1 <0>         0.4458
     39 H7         -3.5916   -1.4892    2.9185 H         1 <0>         0.4310
     40 H8         -3.6193   -0.7288   -3.4141 H         1 <0>         0.4315
     41 H9         -5.0374   -1.1147   -2.6001 H         1 <0>         0.4294
     42 H10        -0.9328    1.7057   -2.0856 H         1 <0>         0.1458
     43 H11         0.3049    2.2099   -4.1501 H         1 <0>         0.1572
     44 H12        -1.4416   -2.3490   -3.3775 H         1 <0>         0.1419
     45 H13         1.1252   -0.0736   -8.6572 H         1 <0>         0.1006
     46 H14         2.6017    0.6989   -8.0317 H         1 <0>         0.1018
     47 H15         2.6135   -1.0293   -8.4576 H         1 <0>         0.1113
     48 H16        -0.3263   -4.1055   -6.0723 H         1 <0>         0.1101
     49 H17        -1.1998   -3.5366   -4.6296 H         1 <0>         0.0974
     50 H18        -2.7961   -2.3119   -6.0789 H         1 <0>         0.0710
     51 H19        -1.9225   -2.8808   -7.5217 H         1 <0>         0.0785
     52 H20        -2.6446   -5.1302   -5.9740 H         1 <0>         0.4034
     53 H21        -4.4117   -6.4651   -6.5175 H         1 <0>         0.0773
     54 H22        -5.9161   -5.5311   -6.6986 H         1 <0>         0.0980
     55 H23        -5.0426   -6.1000   -8.1414 H         1 <0>         0.1006
     56 H24        -1.6224   -0.9690    1.8299 H         1 <0>         0.4426
@<TRIPOS>BOND
     1    1    2 1
     2    1   33 1
     3    1   34 1
     4    1   35 1
     5    2    3 1
     6    2   36 1
     7    2   37 1
     8    3    8 ar
     9    3    4 ar
    10    4    5 ar
    11    4   11 1
    12    5    6 ar
    13    5   10 1
    14    6    7 ar
    15    7    8 ar
    16    7    9 1
    17    8   56 1
    18    9   38 1
    19    9   39 1
    20   10   40 1
    21   10   41 1
    22   11   16 ar
    23   11   12 ar
    24   12   13 ar
    25   12   42 1
    26   13   14 ar
    27   13   43 1
    28   14   21 1
    29   14   15 ar
    30   15   16 ar
    31   15   17 1
    32   16   44 1
    33   17   18 am
    34   17   27 1
    35   18   19 2
    36   18   20 1
    37   20   21 1
    38   20   22 1
    39   20   23 1
    40   22   45 1
    41   22   46 1
    42   22   47 1
    43   23   24 1
    44   23   25 1
    45   23   26 1
    46   27   28 1
    47   27   48 1
    48   27   49 1
    49   28   29 1
    50   28   50 1
    51   28   51 1
    52   29   30 am
    53   29   52 1
    54   30   31 2
    55   30   32 1
    56   32   53 1
    57   32   54 1
    58   32   55 1
@<TRIPOS>MOLECULE
CHEMBL394016__1
   55    57     0     0     0
SMALL
USER_CHARGES

@<TRIPOS>ATOM
      1 C1         -0.0187    1.5258    0.0104 C.3       1 <0>        -0.1411
      2 C2          0.0021   -0.0041    0.0020 C.3       1 <0>        -0.0822
      3 C3         -1.4117   -0.5257    0.0127 C.ar      1 <0>         0.2719
      4 C4         -2.0643   -0.7710    1.2188 C.ar      1 <0>        -0.2877
      5 C5         -3.3838   -1.2577    1.1752 C.ar      1 <0>         0.4993
      6 N1         -3.9529   -1.4632   -0.0070 N.ar      1 <0>        -0.6299
      7 C6         -3.2929   -1.2155   -1.1285 C.ar      1 <0>         0.6122
      8 N2         -2.0515   -0.7516   -1.1235 N.ar      1 <0>        -0.6017
      9 N3         -3.9201   -1.4424   -2.3408 N.pl3     1 <0>        -0.8183
     10 N4         -4.0766   -1.5181    2.3443 N.pl3     1 <0>        -0.8303
     11 C7         -1.3859   -0.5261    2.5146 C.ar      1 <0>         0.0103
     12 C8         -0.2671   -1.2782    2.8697 C.ar      1 <0>        -0.0976
     13 C9          0.3661   -1.0516    4.0756 C.ar      1 <0>        -0.0852
     14 C10        -0.1088   -0.0751    4.9354 C.ar      1 <0>         0.0592
     15 C11        -1.2279    0.6805    4.5853 C.ar      1 <0>         0.1087
     16 C12        -1.8629    0.4606    3.3765 C.ar      1 <0>        -0.1212
     17 N5         -1.6950    1.6640    5.4694 N.am      1 <0>        -0.5369
     18 C13        -0.8910    2.0774    6.4730 C.2       1 <0>         0.4997
     19 O1         -1.2850    2.9050    7.2674 O.2       1 <0>        -0.4684
     20 C14         0.4979    1.5055    6.6021 C.3       1 <0>         0.0689
     21 O2          0.5086    0.1576    6.1252 O.3       1 <0>        -0.2675
     22 C15         0.9240    1.5293    8.0714 C.3       1 <0>        -0.1407
     23 C16         1.4735    2.3459    5.7759 C.3       1 <0>         0.4384
     24 F1          1.4662    3.6641    6.2445 F         1 <0>        -0.1638
     25 F2          2.7627    1.8157    5.8952 F         1 <0>        -0.1593
     26 F3          1.0838    2.3264    4.4324 F         1 <0>        -0.1700
     27 C17        -3.0344    2.2346    5.3066 C.3       1 <0>         0.0963
     28 C18        -4.0423    1.4064    6.1061 C.3       1 <0>         0.1050
     29 N6         -5.3817    1.9770    5.9432 N.am      1 <0>        -0.7306
     30 C19        -6.4361    1.4086    6.5611 C.2       1 <0>         0.5128
     31 O3         -6.2760    0.4247    7.2519 O.2       1 <0>        -0.5407
     32 C20        -7.8139    1.9956    6.3936 C.3       1 <0>        -0.1728
     33 H1          1.0039    1.9031    0.0027 H         1 <0>         0.0659
     34 H2         -0.5459    1.8868   -0.8726 H         1 <0>         0.0592
     35 H3         -0.5289    1.8773    0.9072 H         1 <0>         0.0549
     36 H4          0.5123   -0.3556   -0.8948 H         1 <0>         0.0885
     37 H5          0.5293   -0.3651    0.8851 H         1 <0>         0.0886
     38 H6         -4.8300   -1.7780   -2.3609 H         1 <0>         0.4143
     39 H7         -3.4500   -1.2658   -3.1707 H         1 <0>         0.4163
     40 H8         -3.6530   -1.3654    3.2034 H         1 <0>         0.4115
     41 H9         -4.9860   -1.8535    2.3048 H         1 <0>         0.4083
     42 H10         0.1048   -2.0399    2.2004 H         1 <0>         0.1406
     43 H11         1.2324   -1.6359    4.3483 H         1 <0>         0.1473
     44 H12        -2.7267    1.0483    3.1028 H         1 <0>         0.1358
     45 H13         0.2286    0.9320    8.6611 H         1 <0>         0.0973
     46 H14         1.9282    1.1159    8.1652 H         1 <0>         0.0975
     47 H15         0.9187    2.5570    8.4346 H         1 <0>         0.1067
     48 H16        -3.0384    3.2620    5.6706 H         1 <0>         0.1054
     49 H17        -3.3091    2.2218    4.2518 H         1 <0>         0.0995
     50 H18        -4.0384    0.3790    5.7420 H         1 <0>         0.0734
     51 H19        -3.7677    1.4192    7.1608 H         1 <0>         0.0760
     52 H20        -5.5098    2.7640    5.3908 H         1 <0>         0.4031
     53 H21        -8.3024    1.5366    5.5341 H         1 <0>         0.0958
     54 H22        -8.4021    1.8039    7.2911 H         1 <0>         0.0960
     55 H23        -7.7338    3.0710    6.2346 H         1 <0>         0.0815
@<TRIPOS>BOND
     1    1    2 1
     2    1   33 1
     3    1   34 1
     4    1   35 1
     5    2    3 1
     6    2   36 1
     7    2   37 1
     8    3    8 ar
     9    3    4 ar
    10    4    5 ar
    11    4   11 1
    12    5    6 ar
    13    5   10 1
    14    6    7 ar
    15    7    8 ar
    16    7    9 1
    17    9   38 1
    18    9   39 1
    19   10   40 1
    20   10   41 1
    21   11   16 ar
    22   11   12 ar
    23   12   13 ar
    24   12   42 1
    25   13   14 ar
    26   13   43 1
    27   14   21 1
    28   14   15 ar
    29   15   16 ar
    30   15   17 1
    31   16   44 1
    32   17   18 am
    33   17   27 1
    34   18   19 2
    35   18   20 1
    36   20   21 1
    37   20   22 1
    38   20   23 1
    39   22   45 1
    40   22   46 1
    41   22   47 1
    42   23   24 1
    43   23   25 1
    44   23   26 1
    45   27   28 1
    46   27   48 1
    47   27   49 1
    48   28   29 1
    49   28   50 1
    50   28   51 1
    51   29   30 am
    52   29   52 1
    53   30   31 2
    54   30   32 1
    55   32   53 1
    56   32   54 1
    57   32   55 1
@<TRIPOS>MOLECULE
CHEMBL394016__2
   56    58     0     0     0
SMALL
USER_CHARGES

@<TRIPOS>ATOM
      1 C1          0.8933   -1.6713   -0.2828 C.3       1 <0>        -0.1536
      2 C2          0.1060   -0.3844   -0.0280 C.3       1 <0>        -0.1066
      3 C3         -1.3704   -0.6722   -0.1204 C.ar      1 <0>         0.2566
      4 C4         -2.0170   -0.6540   -1.3542 C.ar      1 <0>        -0.1910
      5 C5         -3.3966   -0.9293   -1.3873 C.ar      1 <0>         0.5405
      6 N1         -4.0253   -1.1943   -0.2479 N.ar      1 <0>        -0.5735
      7 C6         -3.3684   -1.2004    0.9024 C.ar      1 <0>         0.6668
      8 N2         -2.0685   -0.9509    0.9687 N.ar      1 <0>        -0.5694
      9 N3         -4.0587   -1.4811    2.0683 N.pl3     1 <0>        -0.7900
     10 N4         -4.0866   -0.9235   -2.5867 N.pl3     1 <0>        -0.7704
     11 C7         -1.2712   -0.3519   -2.5999 C.ar      1 <0>        -0.0502
     12 C8         -0.7739    0.9315   -2.8216 C.ar      1 <0>        -0.0843
     13 C9         -0.0794    1.2149   -3.9809 C.ar      1 <0>        -0.0839
     14 C10         0.1249    0.2239   -4.9267 C.ar      1 <0>         0.0872
     15 C11        -0.3697   -1.0623   -4.7097 C.ar      1 <0>         0.1167
     16 C12        -1.0617   -1.3525   -3.5479 C.ar      1 <0>        -0.1117
     17 N5         -0.1519   -2.0530   -5.6782 N.am      1 <0>        -0.5414
     18 C13         0.2406   -1.6830   -6.9166 C.2       1 <0>         0.4990
     19 O1          0.4630   -2.5242   -7.7616 O.2       1 <0>        -0.4507
     20 C14         0.4005   -0.2202   -7.2443 C.3       1 <0>         0.0690
     21 O2          0.8062    0.4929   -6.0731 O.3       1 <0>        -0.2637
     22 C15         1.4617   -0.0554   -8.3340 C.3       1 <0>        -0.1442
     23 C16        -0.9331    0.3385   -7.7443 C.3       1 <0>         0.4400
     24 F1         -1.9048    0.1867   -6.7493 F         1 <0>        -0.1763
     25 F2         -0.7853    1.6960   -8.0486 F         1 <0>        -0.1549
     26 F3         -1.3287   -0.3563   -8.8924 F         1 <0>        -0.1575
     27 C17        -0.3466   -3.4678   -5.3515 C.3       1 <0>         0.0958
     28 C18        -1.7946   -3.8646   -5.6461 C.3       1 <0>         0.1005
     29 N6         -1.9893   -5.2794   -5.3195 N.am      1 <0>        -0.7325
     30 C19        -3.1957   -5.8527   -5.4996 C.2       1 <0>         0.5137
     31 O3         -4.1200   -5.1974   -5.9321 O.2       1 <0>        -0.5390
     32 C20        -3.3960   -7.3081   -5.1636 C.3       1 <0>        -0.1722
     33 H1          1.9575   -1.4794   -0.1455 H         1 <0>         0.0891
     34 H2          0.5694   -2.4403    0.4186 H         1 <0>         0.0626
     35 H3          0.7140   -2.0111   -1.3028 H         1 <0>         0.0706
     36 H4          0.3408   -0.0057    0.9667 H         1 <0>         0.1058
     37 H5          0.3781    0.3618   -0.7745 H         1 <0>         0.1242
     38 H6         -5.0096   -1.6696    2.0356 H         1 <0>         0.4459
     39 H7         -3.5916   -1.4893    2.9185 H         1 <0>         0.4308
     40 H8         -3.6193   -0.7285   -3.4141 H         1 <0>         0.4320
     41 H9         -5.0375   -1.1144   -2.6001 H         1 <0>         0.4301
     42 H10        -0.9324    1.7056   -2.0854 H         1 <0>         0.1459
     43 H11         0.3044    2.2100   -4.1503 H         1 <0>         0.1572
     44 H12        -1.4417   -2.3490   -3.3776 H         1 <0>         0.1414
     45 H13         1.1515   -0.5965   -9.2280 H         1 <0>         0.1113
     46 H14         1.5777    1.0021   -8.5713 H         1 <0>         0.1017
     47 H15         2.4119   -0.4545   -7.9792 H         1 <0>         0.1004
     48 H16         0.3268   -4.0761   -5.9553 H         1 <0>         0.1119
     49 H17        -0.1334   -3.6294   -4.2949 H         1 <0>         0.0996
     50 H18        -2.4681   -3.2563   -5.0424 H         1 <0>         0.0693
     51 H19        -2.0078   -3.7030   -6.7028 H         1 <0>         0.0783
     52 H20        -1.2500   -5.8035   -4.9736 H         1 <0>         0.4044
     53 H21        -2.4610   -7.7271   -4.7917 H         1 <0>         0.0780
     54 H22        -4.1660   -7.4015   -4.3978 H         1 <0>         0.0974
     55 H23        -3.7058   -7.8482   -6.0582 H         1 <0>         0.1010
     56 H24        -1.6224   -0.9692    1.8299 H         1 <0>         0.4423
@<TRIPOS>BOND
     1    1    2 1
     2    1   33 1
     3    1   34 1
     4    1   35 1
     5    2    3 1
     6    2   36 1
     7    2   37 1
     8    3    8 ar
     9    3    4 ar
    10    4    5 ar
    11    4   11 1
    12    5    6 ar
    13    5   10 1
    14    6    7 ar
    15    7    8 ar
    16    7    9 1
    17    8   56 1
    18    9   38 1
    19    9   39 1
    20   10   40 1
    21   10   41 1
    22   11   16 ar
    23   11   12 ar
    24   12   13 ar
    25   12   42 1
    26   13   14 ar
    27   13   43 1
    28   14   21 1
    29   14   15 ar
    30   15   16 ar
    31   15   17 1
    32   16   44 1
    33   17   18 am
    34   17   27 1
    35   18   19 2
    36   18   20 1
    37   20   21 1
    38   20   22 1
    39   20   23 1
    40   22   45 1
    41   22   46 1
    42   22   47 1
    43   23   24 1
    44   23   25 1
    45   23   26 1
    46   27   28 1
    47   27   48 1
    48   27   49 1
    49   28   29 1
    50   28   50 1
    51   28   51 1
    52   29   30 am
    53   29   52 1
    54   30   31 2
    55   30   32 1
    56   32   53 1
    57   32   54 1
    58   32   55 1
@<TRIPOS>MOLECULE
CHEMBL394016__3
   55    57     0     0     0
SMALL
USER_CHARGES

@<TRIPOS>ATOM
      1 C1         -0.0187    1.5258    0.0104 C.3       1 <0>        -0.1408
      2 C2          0.0021   -0.0041    0.0020 C.3       1 <0>        -0.0820
      3 C3         -1.4117   -0.5257    0.0127 C.ar      1 <0>         0.2712
      4 C4         -2.0643   -0.7710    1.2188 C.ar      1 <0>        -0.2888
      5 C5         -3.3838   -1.2577    1.1752 C.ar      1 <0>         0.5001
      6 N1         -3.9529   -1.4632   -0.0070 N.ar      1 <0>        -0.6299
      7 C6         -3.2929   -1.2155   -1.1285 C.ar      1 <0>         0.6125
      8 N2         -2.0515   -0.7516   -1.1235 N.ar      1 <0>        -0.6024
      9 N3         -3.9201   -1.4424   -2.3408 N.pl3     1 <0>        -0.8184
     10 N4         -4.0766   -1.5181    2.3443 N.pl3     1 <0>        -0.8291
     11 C7         -1.3859   -0.5261    2.5146 C.ar      1 <0>         0.0107
     12 C8         -0.2671   -1.2782    2.8697 C.ar      1 <0>        -0.0976
     13 C9          0.3658   -1.0519    4.0758 C.ar      1 <0>        -0.0853
     14 C10        -0.1098   -0.0763    4.9362 C.ar      1 <0>         0.0589
     15 C11        -1.2284    0.6800    4.5857 C.ar      1 <0>         0.1085
     16 C12        -1.8629    0.4606    3.3765 C.ar      1 <0>        -0.1215
     17 N5         -1.6947    1.6643    5.4692 N.am      1 <0>        -0.5367
     18 C13        -1.2661    1.6506    6.7501 C.2       1 <0>         0.4998
     19 O1         -1.6333    2.5090    7.5243 O.2       1 <0>        -0.4683
     20 C14        -0.3300    0.5636    7.2136 C.3       1 <0>         0.0686
     21 O2          0.5051    0.1536    6.1277 O.3       1 <0>        -0.2675
     22 C15         0.5411    1.0937    8.3541 C.3       1 <0>        -0.1403
     23 C16        -1.1446   -0.6329    7.7095 C.3       1 <0>         0.4383
     24 F1         -1.9430   -1.1174    6.6679 F         1 <0>        -0.1714
     25 F2         -0.2764   -1.6420    8.1397 F         1 <0>        -0.1592
     26 F3         -1.9592   -0.2332    8.7743 F         1 <0>        -0.1630
     27 C17        -2.6320    2.6922    5.0097 C.3       1 <0>         0.0975
     28 C18        -4.0669    2.2006    5.2110 C.3       1 <0>         0.1010
     29 N6         -5.0042    3.2285    4.7515 N.am      1 <0>        -0.7305
     30 C19        -6.3323    3.0140    4.8325 C.2       1 <0>         0.5126
     31 O3         -6.7515    1.9701    5.2857 O.2       1 <0>        -0.5400
     32 C20        -7.2965    4.0713    4.3598 C.3       1 <0>        -0.1727
     33 H1          1.0039    1.9031    0.0027 H         1 <0>         0.0658
     34 H2         -0.5459    1.8868   -0.8726 H         1 <0>         0.0592
     35 H3         -0.5289    1.8773    0.9072 H         1 <0>         0.0544
     36 H4          0.5123   -0.3556   -0.8948 H         1 <0>         0.0884
     37 H5          0.5293   -0.3651    0.8851 H         1 <0>         0.0887
     38 H6         -4.8300   -1.7780   -2.3609 H         1 <0>         0.4143
     39 H7         -3.4500   -1.2658   -3.1707 H         1 <0>         0.4161
     40 H8         -3.6530   -1.3654    3.2034 H         1 <0>         0.4120
     41 H9         -4.9860   -1.8535    2.3048 H         1 <0>         0.4090
     42 H10         0.1051   -2.0396    2.2002 H         1 <0>         0.1407
     43 H11         1.2321   -1.6363    4.3486 H         1 <0>         0.1472
     44 H12        -2.7268    1.0482    3.1029 H         1 <0>         0.1354
     45 H13        -0.0949    1.4037    9.1833 H         1 <0>         0.1066
     46 H14         1.2182    0.3081    8.6896 H         1 <0>         0.0974
     47 H15         1.1208    1.9471    8.0021 H         1 <0>         0.0973
     48 H16        -2.4776    3.6068    5.5822 H         1 <0>         0.1069
     49 H17        -2.4617    2.8925    3.9519 H         1 <0>         0.1003
     50 H18        -4.2213    1.2860    4.6385 H         1 <0>         0.0736
     51 H19        -4.2372    2.0003    6.2688 H         1 <0>         0.0756
     52 H20        -4.6690    4.0634    4.3890 H         1 <0>         0.4034
     53 H21        -7.5198    3.9139    3.3046 H         1 <0>         0.0956
     54 H22        -8.2175    4.0084    4.9394 H         1 <0>         0.0960
     55 H23        -6.8497    5.0565    4.4936 H         1 <0>         0.0816
@<TRIPOS>BOND
     1    1    2 1
     2    1   33 1
     3    1   34 1
     4    1   35 1
     5    2    3 1
     6    2   36 1
     7    2   37 1
     8    3    8 ar
     9    3    4 ar
    10    4    5 ar
    11    4   11 1
    12    5    6 ar
    13    5   10 1
    14    6    7 ar
    15    7    8 ar
    16    7    9 1
    17    9   38 1
    18    9   39 1
    19   10   40 1
    20   10   41 1
    21   11   16 ar
    22   11   12 ar
    23   12   13 ar
    24   12   42 1
    25   13   14 ar
    26   13   43 1
    27   14   21 1
    28   14   15 ar
    29   15   16 ar
    30   15   17 1
    31   16   44 1
    32   17   18 am
    33   17   27 1
    34   18   19 2
    35   18   20 1
    36   20   21 1
    37   20   22 1
    38   20   23 1
    39   22   45 1
    40   22   46 1
    41   22   47 1
    42   23   24 1
    43   23   25 1
    44   23   26 1
    45   27   28 1
    46   27   48 1
    47   27   49 1
    48   28   29 1
    49   28   50 1
    50   28   51 1
    51   29   30 am
    52   29   52 1
    53   30   31 2
    54   30   32 1
    55   32   53 1
    56   32   54 1
    57   32   55 1
@<TRIPOS>MOLECULE
CHEMBL64454
   81    83     0     0     0
SMALL
USER_CHARGES

@<TRIPOS>ATOM
      1 C1         -1.4925   -0.2769   -0.1186 C.3       1 <0>        -0.1492
      2 C2          0.0165   -0.0883    0.0492 C.3       1 <0>        -0.0942
      3 C3          0.4946   -0.8678    1.2759 C.3       1 <0>        -0.1493
      4 C4          0.7370   -0.6066   -1.1970 C.3       1 <0>        -0.1449
      5 C5          2.2304   -0.2918   -1.0907 C.3       1 <0>         0.0767
      6 H1          2.6270   -0.7186   -0.1695 H         1 <0>         0.1007
      7 C6          2.9653   -0.8944   -2.2897 C.3       1 <0>         0.0673
      8 H2          2.5687   -0.4675   -3.2109 H         1 <0>         0.1135
      9 C7          4.4588   -0.5795   -2.1834 C.3       1 <0>         0.1180
     10 H3          4.6026    0.5009   -2.1746 H         1 <0>         0.1100
     11 C8          5.1937   -1.1821   -3.3824 C.3       1 <0>        -0.1227
     12 C9          6.6646   -0.7627   -3.3425 C.3       1 <0>        -0.0809
     13 C10         6.7679    0.7529   -3.5243 C.3       1 <0>        -0.1052
     14 C11         8.2388    1.1722   -3.4843 C.3       1 <0>        -0.1106
     15 C12         9.0000    0.4704   -4.6107 C.3       1 <0>        -0.1206
     16 C13         8.8967   -1.0453   -4.4289 C.3       1 <0>        -0.1167
     17 C14         7.4258   -1.4646   -4.4689 C.3       1 <0>        -0.1155
     18 N1          4.9919   -1.1532   -0.9453 N.am      1 <0>        -0.7185
     19 C15         6.0910   -0.6214   -0.3747 C.2       1 <0>         0.5153
     20 O1          6.6387    0.3322   -0.8862 O.2       1 <0>        -0.5093
     21 C16         6.6393   -1.2115    0.8990 C.3       1 <0>         0.1337
     22 H4          6.9087   -2.2541    0.7298 H         1 <0>         0.1151
     23 C17         5.5770   -1.1310    1.9971 C.3       1 <0>        -0.0993
     24 C18         6.0791   -1.8301    3.2340 C.2       1 <0>        -0.1366
     25 C19         6.1123   -1.1935    4.3784 C.2       1 <0>        -0.1962
     26 N2          7.8275   -0.4611    1.3130 N.am      1 <0>        -0.7105
     27 C20         8.7633   -1.0517    2.0823 C.2       1 <0>         0.5232
     28 O2          8.6218   -2.2044    2.4318 O.2       1 <0>        -0.5112
     29 C21         9.9855   -0.2798    2.5081 C.3       1 <0>         0.0744
     30 H5          9.7030    0.7416    2.7634 H         1 <0>         0.0646
     31 C22        11.0043   -0.2612    1.3682 C.3       1 <0>        -0.0640
     32 C23        12.3166    0.2933    1.8602 C.ar      1 <0>        -0.0677
     33 C24        13.2449    0.7242    0.9244 C.ar      1 <0>        -0.1177
     34 C25        14.4609    1.2345    1.3323 C.ar      1 <0>        -0.1181
     35 C26        14.7549    1.3165    2.6808 C.ar      1 <0>        -0.1201
     36 C27        13.8308    0.8900    3.6129 C.ar      1 <0>        -0.1148
     37 C28        12.6074    0.3786    3.2048 C.ar      1 <0>        -0.0804
     38 C29        11.6276   -0.0643    4.2595 C.3       1 <0>         0.0980
     39 N3         10.5984   -0.9301    3.6773 N.3       1 <0>        -0.6604
     40 O3          2.7768   -2.3108   -2.3013 O.3       1 <0>        -0.5429
     41 O4          2.4190    1.1247   -1.0791 O.3       1 <0>        -0.5485
     42 H6         -1.8477    0.3470   -0.9388 H         1 <0>         0.0532
     43 H7         -1.7057   -1.3229   -0.3391 H         1 <0>         0.0540
     44 H8         -1.9993    0.0108    0.8025 H         1 <0>         0.0552
     45 H9          0.2377    0.9706    0.1827 H         1 <0>         0.0757
     46 H10         0.2734   -1.9267    1.1424 H         1 <0>         0.0539
     47 H11         1.5696   -0.7334    1.3955 H         1 <0>         0.0531
     48 H12        -0.0187   -0.4985    2.1638 H         1 <0>         0.0549
     49 H13         0.5976   -1.6849   -1.2752 H         1 <0>         0.0801
     50 H14         0.3256   -0.1220   -2.0825 H         1 <0>         0.0660
     51 H15         5.1246   -2.2691   -3.3421 H         1 <0>         0.0694
     52 H16         4.7385   -0.8231   -4.3055 H         1 <0>         0.0702
     53 H17         7.0965   -1.0437   -2.3819 H         1 <0>         0.0743
     54 H18         6.3360    1.0339   -4.4848 H         1 <0>         0.0452
     55 H19         6.2256    1.2529   -2.7218 H         1 <0>         0.0785
     56 H20         8.3124    2.2520   -3.6139 H         1 <0>         0.0532
     57 H21         8.6707    0.8913   -2.5238 H         1 <0>         0.0631
     58 H22         8.5681    0.7513   -5.5712 H         1 <0>         0.0572
     59 H23        10.0479    0.7691   -4.5822 H         1 <0>         0.0562
     60 H24         9.4390   -1.5453   -5.2313 H         1 <0>         0.0571
     61 H25         9.3286   -1.3263   -3.4684 H         1 <0>         0.0577
     62 H26         7.3522   -2.5444   -4.3393 H         1 <0>         0.0554
     63 H27         6.9939   -1.1837   -5.4294 H         1 <0>         0.0580
     64 H28         4.5538   -1.9158   -0.5361 H         1 <0>         0.3934
     65 H29         5.3721   -0.0857    2.2284 H         1 <0>         0.0765
     66 H30         4.6618   -1.6132    1.6534 H         1 <0>         0.0822
     67 H31         6.4116   -2.8561    3.1770 H         1 <0>         0.1184
     68 H32         5.7798   -0.1675    4.4354 H         1 <0>         0.0906
     69 H33         6.4722   -1.6945    5.2649 H         1 <0>         0.0975
     70 H34         7.9406    0.4608    1.0334 H         1 <0>         0.4098
     71 H35        11.1553   -1.2764    1.0012 H         1 <0>         0.0892
     72 H36        10.6288    0.3630    0.5574 H         1 <0>         0.0834
     73 H37        13.0155    0.6598   -0.1289 H         1 <0>         0.1222
     74 H38        15.1809    1.5686    0.5999 H         1 <0>         0.1230
     75 H39        15.7056    1.7139    3.0041 H         1 <0>         0.1232
     76 H40        14.0614    0.9543    4.6660 H         1 <0>         0.1227
     77 H41        12.1595   -0.6099    5.0390 H         1 <0>         0.0947
     78 H42        11.1506    0.8118    4.6988 H         1 <0>         0.0464
     79 H43         9.8994   -1.1755    4.3624 H         1 <0>         0.3554
     80 H44         3.1070   -2.7580   -1.5100 H         1 <0>         0.3701
     81 H45         2.0887    1.5719   -1.8704 H         1 <0>         0.3754
@<TRIPOS>BOND
     1    1    2 1
     2    1   42 1
     3    1   43 1
     4    1   44 1
     5    2    3 1
     6    2    4 1
     7    2   45 1
     8    3   46 1
     9    3   47 1
    10    3   48 1
    11    4    5 1
    12    4   49 1
    13    4   50 1
    14    5    6 1
    15    5    7 1
    16    5   41 1
    17    7    8 1
    18    7    9 1
    19    7   40 1
    20    9   10 1
    21    9   11 1
    22    9   18 1
    23   11   12 1
    24   11   51 1
    25   11   52 1
    26   12   17 1
    27   12   13 1
    28   12   53 1
    29   13   14 1
    30   13   54 1
    31   13   55 1
    32   14   15 1
    33   14   56 1
    34   14   57 1
    35   15   16 1
    36   15   58 1
    37   15   59 1
    38   16   17 1
    39   16   60 1
    40   16   61 1
    41   17   62 1
    42   17   63 1
    43   18   19 am
    44   18   64 1
    45   19   20 2
    46   19   21 1
    47   21   22 1
    48   21   23 1
    49   21   26 1
    50   23   24 1
    51   23   65 1
    52   23   66 1
    53   24   25 2
    54   24   67 1
    55   25   68 1
    56   25   69 1
    57   26   27 am
    58   26   70 1
    59   27   28 2
    60   27   29 1
    61   29   30 1
    62   29   39 1
    63   29   31 1
    64   31   32 1
    65   31   71 1
    66   31   72 1
    67   32   37 ar
    68   32   33 ar
    69   33   34 ar
    70   33   73 1
    71   34   35 ar
    72   34   74 1
    73   35   36 ar
    74   35   75 1
    75   36   37 ar
    76   36   76 1
    77   37   38 1
    78   38   39 1
    79   38   77 1
    80   38   78 1
    81   39   79 1
    82   40   80 1
    83   41   81 1
@<TRIPOS>MOLECULE
CHEMBL73216
   98    99     0     0     0
SMALL
USER_CHARGES

@<TRIPOS>ATOM
      1 C1         -0.1847   -0.7018   -1.2362 C.3       1 <0>        -0.1513
      2 C2         -0.8870   -0.4740    0.1039 C.3       1 <0>        -0.0944
      3 C3         -2.1544   -1.3288    0.1673 C.3       1 <0>        -0.1469
      4 C4          0.0521   -0.8687    1.2455 C.3       1 <0>        -0.1472
      5 C5         -0.5930   -0.5067    2.5848 C.3       1 <0>         0.0793
      6 H1         -1.5743   -0.9761    2.6542 H         1 <0>         0.0952
      7 C6          0.2927   -1.0050    3.7286 C.3       1 <0>         0.0642
      8 H2          1.2740   -0.5356    3.6593 H         1 <0>         0.1206
      9 C7         -0.3523   -0.6429    5.0679 C.3       1 <0>         0.1145
     10 C8          0.5333   -1.1412    6.2117 C.3       1 <0>        -0.1222
     11 C9          1.8589   -0.3772    6.2003 C.3       1 <0>        -0.0829
     12 C10         1.5996    1.0987    6.5090 C.3       1 <0>        -0.1153
     13 C11         2.9251    1.8627    6.4976 C.3       1 <0>        -0.1207
     14 C12         3.8605    1.2768    7.5571 C.3       1 <0>        -0.1221
     15 C13         4.1199   -0.1991    7.2485 C.3       1 <0>        -0.1207
     16 C14         2.7943   -0.9631    7.2599 C.3       1 <0>        -0.1124
     17 N1         -1.6712   -1.2738    5.1611 N.am      1 <0>        -0.7170
     18 C15        -2.6371   -0.7084    5.9121 C.2       1 <0>         0.5145
     19 O1         -2.4455    0.3684    6.4362 O.2       1 <0>        -0.5024
     20 C16        -3.9552   -1.4142    6.1004 C.3       1 <0>         0.1301
     21 C17        -4.6207   -1.6237    4.7387 C.3       1 <0>        -0.0722
     22 C18        -5.8777   -2.4364    4.9136 C.2       1 <0>         0.0426
     23 C19        -7.0928   -1.9548    5.2376 C.2       1 <0>         0.0446
     24 N2         -7.9423   -3.0268    5.2911 N.pl3     1 <0>        -0.5000
     25 C20        -7.2162   -4.1269    4.9977 C.cat     1 <0>         0.3131
     26 N3         -5.9834   -3.7656    4.7682 N.pl3     1 <0>        -0.4675
     27 N4         -4.8279   -0.6004    6.9504 N.am      1 <0>        -0.7048
     28 C21        -5.8094   -1.1858    7.6648 C.2       1 <0>         0.5215
     29 O2         -5.9702   -2.3864    7.6040 O.2       1 <0>        -0.5405
     30 C22        -6.7070   -0.3487    8.5391 C.3       1 <0>         0.1461
     31 C23        -5.8640    0.3737    9.5920 C.3       1 <0>        -0.1279
     32 C24        -6.7564    1.3186   10.3993 C.3       1 <0>        -0.0903
     33 C25        -5.9412    1.9471   11.5312 C.3       1 <0>        -0.1512
     34 C26        -7.2920    2.4210    9.4835 C.3       1 <0>        -0.1416
     35 N5         -7.6844   -1.2132    9.2051 N.am      1 <0>        -0.6998
     36 C27        -8.8640   -0.7061    9.6146 C.2       1 <0>         0.6509
     37 O3         -9.1169    0.4682    9.4314 O.2       1 <0>        -0.5465
     38 O4         -9.7622   -1.5006   10.2267 O.3       1 <0>        -0.3569
     39 C28       -10.9914   -0.8964   10.6342 C.3       1 <0>         0.1373
     40 C29       -11.7116   -0.3293    9.4092 C.3       1 <0>        -0.1845
     41 C30       -11.8780   -1.9469   11.3061 C.3       1 <0>        -0.1431
     42 C31       -10.7008    0.2339   11.6236 C.3       1 <0>        -0.1886
     43 O5          0.4358   -2.4238    3.6369 O.3       1 <0>        -0.5369
     44 O6         -0.7360    0.9121    2.6765 O.3       1 <0>        -0.5499
     45 H3          0.1588   -1.7346   -1.2953 H         1 <0>         0.0545
     46 H4         -0.8821   -0.5037   -2.0501 H         1 <0>         0.0565
     47 H5          0.6694   -0.0296   -1.3177 H         1 <0>         0.0560
     48 H6         -1.1535    0.5786    0.2001 H         1 <0>         0.0771
     49 H7         -1.8879   -2.3813    0.0711 H         1 <0>         0.0532
     50 H8         -2.6547   -1.1664    1.1220 H         1 <0>         0.0475
     51 H9         -2.8234   -1.0475   -0.6459 H         1 <0>         0.0558
     52 H10         0.2365   -1.9424    1.2095 H         1 <0>         0.0804
     53 H11         0.9962   -0.3342    1.1406 H         1 <0>         0.0693
     54 H12        -0.4615    0.4393    5.1379 H         1 <0>         0.1171
     55 H13         0.0265   -0.9753    7.1624 H         1 <0>         0.0666
     56 H14         0.7267   -2.2063    6.0841 H         1 <0>         0.0734
     57 H15         2.3216   -0.4671    5.2175 H         1 <0>         0.0721
     58 H16         0.9332    1.5161    5.7541 H         1 <0>         0.0612
     59 H17         1.1369    1.1886    7.4918 H         1 <0>         0.0628
     60 H18         3.3878    1.7728    5.5147 H         1 <0>         0.0608
     61 H19         2.7404    2.9142    6.7174 H         1 <0>         0.0627
     62 H20         4.8049    1.8211    7.5490 H         1 <0>         0.0625
     63 H21         3.3978    1.3667    8.5399 H         1 <0>         0.0610
     64 H22         4.5826   -0.2890    6.2657 H         1 <0>         0.0618
     65 H23         4.7863   -0.6165    8.0034 H         1 <0>         0.0628
     66 H24         2.3316   -0.8732    8.2427 H         1 <0>         0.0607
     67 H25         2.9790   -2.0146    7.0400 H         1 <0>         0.0616
     68 H26        -1.8494   -2.0984    4.6824 H         1 <0>         0.3912
     69 H27        -3.7853   -2.3810    6.5743 H         1 <0>         0.1241
     70 H28        -4.8713   -0.6560    4.3041 H         1 <0>         0.1248
     71 H29        -3.9351   -2.1528    4.0768 H         1 <0>         0.1087
     72 H30        -8.8891   -3.0010    5.5006 H         1 <0>         0.4657
     73 H31        -7.3479   -0.9214    5.4205 H         1 <0>         0.2135
     74 H32        -7.5941   -5.1378    4.9559 H         1 <0>         0.2643
     75 H33        -4.6992    0.3598    6.9990 H         1 <0>         0.4227
     76 H34        -7.2296    0.3854    7.9259 H         1 <0>         0.1256
     77 H35        -5.4119   -0.3589   10.2605 H         1 <0>         0.0742
     78 H36        -5.0799    0.9477    9.0983 H         1 <0>         0.0834
     79 H37        -7.5913    0.7585   10.8204 H         1 <0>         0.0771
     80 H38        -5.1063    2.5071   11.1101 H         1 <0>         0.0557
     81 H39        -6.5769    2.6202   12.1064 H         1 <0>         0.0585
     82 H40        -5.5596    1.1617   12.1837 H         1 <0>         0.0514
     83 H41        -7.8727    1.9732    8.6771 H         1 <0>         0.0687
     84 H42        -7.9277    3.0942   10.0587 H         1 <0>         0.0544
     85 H43        -6.4570    2.9810    9.0624 H         1 <0>         0.0451
     86 H44        -7.4825   -2.1506    9.3514 H         1 <0>         0.4131
     87 H45       -11.9187   -1.1346    8.7044 H         1 <0>         0.0556
     88 H46       -12.6493    0.1316    9.7200 H         1 <0>         0.0737
     89 H47       -11.0801    0.4191    8.9305 H         1 <0>         0.0876
     90 H48       -11.3649   -2.3509   12.1788 H         1 <0>         0.0683
     91 H49       -12.8156   -1.4860   11.6169 H         1 <0>         0.0844
     92 H50       -12.0850   -2.7521   10.6012 H         1 <0>         0.0654
     93 H51       -10.0692    0.9823   11.1449 H         1 <0>         0.0894
     94 H52       -11.6384    0.6948   11.9344 H         1 <0>         0.0734
     95 H53       -10.1877   -0.1701   12.4963 H         1 <0>         0.0604
     96 H54        -0.3997   -2.9077    3.6913 H         1 <0>         0.3637
     97 H55         0.0994    1.3960    2.6221 H         1 <0>         0.3801
     98 H56        -5.2577   -4.3641    4.5316 H         1 <0>         0.4618
@<TRIPOS>BOND
     1    1    2 1
     2    1   45 1
     3    1   46 1
     4    1   47 1
     5    2    3 1
     6    2    4 1
     7    2   48 1
     8    3   49 1
     9    3   50 1
    10    3   51 1
    11    4    5 1
    12    4   52 1
    13    4   53 1
    14    5    6 1
    15    5    7 1
    16    5   44 1
    17    7    8 1
    18    7    9 1
    19    7   43 1
    20    9   10 1
    21    9   17 1
    22    9   54 1
    23   10   11 1
    24   10   55 1
    25   10   56 1
    26   11   16 1
    27   11   12 1
    28   11   57 1
    29   12   13 1
    30   12   58 1
    31   12   59 1
    32   13   14 1
    33   13   60 1
    34   13   61 1
    35   14   15 1
    36   14   62 1
    37   14   63 1
    38   15   16 1
    39   15   64 1
    40   15   65 1
    41   16   66 1
    42   16   67 1
    43   17   18 am
    44   17   68 1
    45   18   19 2
    46   18   20 1
    47   20   21 1
    48   20   27 1
    49   20   69 1
    50   21   70 1
    51   21   71 1
    52   21   22 1
    53   22   23 2
    54   22   26 1
    55   23   24 1
    56   23   73 1
    57   24   25 1
    58   24   72 1
    59   25   74 1
    60   25   26 2
    61   26   98 1
    62   27   28 am
    63   27   75 1
    64   28   29 2
    65   28   30 1
    66   30   31 1
    67   30   35 1
    68   30   76 1
    69   31   32 1
    70   31   77 1
    71   31   78 1
    72   32   33 1
    73   32   34 1
    74   32   79 1
    75   33   80 1
    76   33   81 1
    77   33   82 1
    78   34   83 1
    79   34   84 1
    80   34   85 1
    81   35   36 am
    82   35   86 1
    83   36   37 2
    84   36   38 1
    85   38   39 1
    86   39   40 1
    87   39   41 1
    88   39   42 1
    89   40   87 1
    90   40   88 1
    91   40   89 1
    92   41   90 1
    93   41   91 1
    94   41   92 1
    95   42   93 1
    96   42   94 1
    97   42   95 1
    98   43   96 1
    99   44   97 1
@<TRIPOS>MOLECULE
CHEMBL73216__1
   97    98     0     0     0
SMALL
USER_CHARGES

@<TRIPOS>ATOM
      1 C1          4.5816   -0.1900    1.3447 C.3       1 <0>        -0.1492
      2 C2          3.9791   -1.5322    0.9247 C.3       1 <0>        -0.0941
      3 C3          3.7126   -2.3830    2.1681 C.3       1 <0>        -0.1488
      4 C4          2.6643   -1.2905    0.1806 C.3       1 <0>        -0.1449
      5 C5          2.1251   -2.6214   -0.3476 C.3       1 <0>         0.0762
      6 H1          2.0345   -3.3293    0.4763 H         1 <0>         0.0995
      7 C6          0.7509   -2.3990   -0.9824 C.3       1 <0>         0.0659
      8 H2          0.8415   -1.6911   -1.8062 H         1 <0>         0.1168
      9 C7          0.2117   -3.7299   -1.5105 C.3       1 <0>         0.1178
     10 C8         -1.1625   -3.5075   -2.1453 C.3       1 <0>        -0.1228
     11 C9         -1.0139   -2.6274   -3.3880 C.3       1 <0>        -0.0817
     12 C10        -0.2082   -3.3774   -4.4507 C.3       1 <0>        -0.1157
     13 C11        -0.0596   -2.4973   -5.6934 C.3       1 <0>        -0.1198
     14 C12        -1.4451   -2.1596   -6.2478 C.3       1 <0>        -0.1211
     15 C13        -2.2507   -1.4096   -5.1851 C.3       1 <0>        -0.1195
     16 C14        -2.3993   -2.2897   -3.9424 C.3       1 <0>        -0.1128
     17 N1          0.0899   -4.6814   -0.4033 N.am      1 <0>        -0.7208
     18 C15         0.1898   -6.0048   -0.6379 C.2       1 <0>         0.5180
     19 O1          0.2869   -6.4133   -1.7758 O.2       1 <0>        -0.5144
     20 C16         0.1808   -6.9770    0.5135 C.3       1 <0>         0.1330
     21 C17         1.3578   -6.6767    1.4437 C.3       1 <0>        -0.0491
     22 C18         1.2791   -7.5672    2.6570 C.2       1 <0>        -0.0205
     23 C19         1.7499   -8.8245    2.7618 C.2       1 <0>        -0.0036
     24 N2          1.4817   -9.2662    3.9995 N.2       1 <0>        -0.4817
     25 C20         0.8625   -8.3303    4.6657 C.2       1 <0>         0.1923
     26 N3          0.7206   -7.2513    3.8661 N.pl3     1 <0>        -0.5599
     27 N4          0.3008   -8.3437   -0.0004 N.am      1 <0>        -0.7097
     28 C21        -0.1726   -9.3789    0.7211 C.2       1 <0>         0.5249
     29 O2         -0.7883   -9.1729    1.7455 O.2       1 <0>        -0.5143
     30 C22         0.0630  -10.7925    0.2550 C.3       1 <0>         0.1492
     31 C23        -0.9642  -11.1529   -0.8201 C.3       1 <0>        -0.1243
     32 C24        -0.7702  -10.2444   -2.0358 C.3       1 <0>        -0.1056
     33 C25         0.5819  -10.5443   -2.6860 C.3       1 <0>        -0.1527
     34 C26        -1.8900  -10.4993   -3.0468 C.3       1 <0>        -0.1435
     35 N5         -0.0745  -11.7100    1.3888 N.am      1 <0>        -0.6919
     36 C27         0.6022  -12.8755    1.3985 C.2       1 <0>         0.6595
     37 O3          1.3964  -13.1243    0.5132 O.2       1 <0>        -0.5666
     38 O4          0.3982  -13.7641    2.3891 O.3       1 <0>        -0.3537
     39 C28         1.1495  -14.9786    2.3362 C.3       1 <0>         0.1357
     40 C29         2.6445  -14.6555    2.3751 C.3       1 <0>        -0.1855
     41 C30         0.7859  -15.8559    3.5357 C.3       1 <0>        -0.1410
     42 C31         0.8224  -15.7245    1.0410 C.3       1 <0>        -0.1859
     43 O5         -0.1478   -1.8764   -0.0019 O.3       1 <0>        -0.5411
     44 O6          3.0238   -3.1440   -1.3280 O.3       1 <0>        -0.5478
     45 H3          5.5184   -0.3622    1.8748 H         1 <0>         0.0552
     46 H4          4.7715    0.4161    0.4589 H         1 <0>         0.0537
     47 H5          3.8842    0.3323    1.9996 H         1 <0>         0.0537
     48 H6          4.6766   -2.0545    0.2697 H         1 <0>         0.0764
     49 H7          3.0152   -1.8607    2.8230 H         1 <0>         0.0531
     50 H8          3.2834   -3.3392    1.8688 H         1 <0>         0.0522
     51 H9          4.6493   -2.5552    2.6981 H         1 <0>         0.0553
     52 H10         1.9372   -0.8486    0.8619 H         1 <0>         0.0798
     53 H11         2.8388   -0.6121   -0.6545 H         1 <0>         0.0665
     54 H12         0.8972   -4.1285   -2.2584 H         1 <0>         0.1118
     55 H13        -1.5911   -4.4685   -2.4298 H         1 <0>         0.0694
     56 H14        -1.8188   -3.0151   -1.4278 H         1 <0>         0.0716
     57 H15        -0.4950   -1.7067   -3.1212 H         1 <0>         0.0702
     58 H16         0.7788   -3.6180   -4.0557 H         1 <0>         0.0621
     59 H17        -0.7272   -4.2981   -4.7175 H         1 <0>         0.0638
     60 H18         0.4593   -1.5766   -5.4266 H         1 <0>         0.0595
     61 H19         0.5144   -3.0316   -6.4505 H         1 <0>         0.0613
     62 H20        -1.3392   -1.5326   -7.1331 H         1 <0>         0.0600
     63 H21        -1.9640   -3.0802   -6.5146 H         1 <0>         0.0609
     64 H22        -1.7318   -0.4889   -4.9183 H         1 <0>         0.0605
     65 H23        -3.2377   -1.1690   -5.5801 H         1 <0>         0.0607
     66 H24        -2.9183   -3.2104   -4.2092 H         1 <0>         0.0610
     67 H25        -2.9733   -1.7554   -3.1853 H         1 <0>         0.0611
     68 H26        -0.0626   -4.3589    0.4988 H         1 <0>         0.3926
     69 H27        -0.7535   -6.8773    1.0659 H         1 <0>         0.1157
     70 H28         2.2938   -6.8623    0.9169 H         1 <0>         0.0981
     71 H29         1.3173   -5.6331    1.7558 H         1 <0>         0.0814
     72 H30         0.3000   -6.4102    4.1037 H         1 <0>         0.4147
     73 H31         2.2550   -9.3799    1.9854 H         1 <0>         0.1527
     74 H32         0.5229   -8.4051    5.6882 H         1 <0>         0.2033
     75 H33         0.7211   -8.5035   -0.8599 H         1 <0>         0.4138
     76 H34         1.0675  -10.8756   -0.1599 H         1 <0>         0.1176
     77 H35        -0.8287  -12.1926   -1.1182 H         1 <0>         0.0841
     78 H36        -1.9698  -11.0172   -0.4219 H         1 <0>         0.0729
     79 H37        -0.7976   -9.2020   -1.7185 H         1 <0>         0.0797
     80 H38         1.3746  -10.4254   -1.9473 H         1 <0>         0.0535
     81 H39         0.5856  -11.5676   -3.0614 H         1 <0>         0.0608
     82 H40         0.7489   -9.8535   -3.5124 H         1 <0>         0.0612
     83 H41        -2.8533  -10.2857   -2.5837 H         1 <0>         0.0530
     84 H42        -1.7518   -9.8521   -3.9129 H         1 <0>         0.0587
     85 H43        -1.8626  -11.5418   -3.3642 H         1 <0>         0.0562
     86 H44        -0.6525  -11.4786    2.1326 H         1 <0>         0.4158
     87 H45         2.8775  -14.1241    3.2978 H         1 <0>         0.0608
     88 H46         3.2175  -15.5819    2.3347 H         1 <0>         0.0688
     89 H47         2.9035  -14.0305    1.5205 H         1 <0>         0.0874
     90 H48        -0.2792  -16.0861    3.5080 H         1 <0>         0.0659
     91 H49         1.3589  -16.7823    3.4953 H         1 <0>         0.0802
     92 H50         1.0189  -15.3245    4.4584 H         1 <0>         0.0675
     93 H51         1.0815  -15.0994    0.1864 H         1 <0>         0.0879
     94 H52         1.3955  -16.6508    1.0006 H         1 <0>         0.0696
     95 H53        -0.2426  -15.9546    1.0132 H         1 <0>         0.0583
     96 H54        -0.2766   -2.4554    0.7619 H         1 <0>         0.3679
     97 H55         3.1526   -2.5650   -2.0918 H         1 <0>         0.3758
@<TRIPOS>BOND
     1    1    2 1
     2    1   45 1
     3    1   46 1
     4    1   47 1
     5    2    3 1
     6    2    4 1
     7    2   48 1
     8    3   49 1
     9    3   50 1
    10    3   51 1
    11    4    5 1
    12    4   52 1
    13    4   53 1
    14    5    6 1
    15    5    7 1
    16    5   44 1
    17    7    8 1
    18    7    9 1
    19    7   43 1
    20    9   10 1
    21    9   17 1
    22    9   54 1
    23   10   11 1
    24   10   55 1
    25   10   56 1
    26   11   16 1
    27   11   12 1
    28   11   57 1
    29   12   13 1
    30   12   58 1
    31   12   59 1
    32   13   14 1
    33   13   60 1
    34   13   61 1
    35   14   15 1
    36   14   62 1
    37   14   63 1
    38   15   16 1
    39   15   64 1
    40   15   65 1
    41   16   66 1
    42   16   67 1
    43   17   18 am
    44   17   68 1
    45   18   19 2
    46   18   20 1
    47   20   21 1
    48   20   27 1
    49   20   69 1
    50   21   70 1
    51   21   71 1
    52   21   22 1
    53   22   23 2
    54   22   26 1
    55   23   24 1
    56   23   73 1
    57   24   25 2
    58   25   74 1
    59   25   26 1
    60   26   72 1
    61   27   28 am
    62   27   75 1
    63   28   29 2
    64   28   30 1
    65   30   31 1
    66   30   35 1
    67   30   76 1
    68   31   32 1
    69   31   77 1
    70   31   78 1
    71   32   33 1
    72   32   34 1
    73   32   79 1
    74   33   80 1
    75   33   81 1
    76   33   82 1
    77   34   83 1
    78   34   84 1
    79   34   85 1
    80   35   36 am
    81   35   86 1
    82   36   37 2
    83   36   38 1
    84   38   39 1
    85   39   40 1
    86   39   41 1
    87   39   42 1
    88   40   87 1
    89   40   88 1
    90   40   89 1
    91   41   90 1
    92   41   91 1
    93   41   92 1
    94   42   93 1
    95   42   94 1
    96   42   95 1
    97   43   96 1
    98   44   97 1
@<TRIPOS>MOLECULE
CHEMBL73216__2
   97    98     0     0     0
SMALL
USER_CHARGES

@<TRIPOS>ATOM
      1 C1          2.4543   -1.0580   -2.3644 C.3       1 <0>        -0.1490
      2 C2          1.3607   -0.6558   -3.3560 C.3       1 <0>        -0.0941
      3 C3          1.1366   -1.7915   -4.3564 C.3       1 <0>        -0.1493
      4 C4          0.0608   -0.3802   -2.5976 C.3       1 <0>        -0.1446
      5 C5         -0.9913    0.1599   -3.5682 C.3       1 <0>         0.0760
      6 H1         -1.1198   -0.5420   -4.3922 H         1 <0>         0.1010
      7 C6         -2.3221    0.3329   -2.8334 C.3       1 <0>         0.0668
      8 H2         -2.1935    1.0348   -2.0094 H         1 <0>         0.1151
      9 C7         -3.3742    0.8731   -3.8040 C.3       1 <0>         0.1159
     10 C8         -4.7050    1.0461   -3.0692 C.3       1 <0>        -0.1229
     11 C9         -4.5629    2.1383   -2.0072 C.3       1 <0>        -0.0816
     12 C10        -4.2996    3.4821   -2.6897 C.3       1 <0>        -0.1160
     13 C11        -4.1575    4.5743   -1.6277 C.3       1 <0>        -0.1196
     14 C12        -5.4478    4.6617   -0.8101 C.3       1 <0>        -0.1210
     15 C13        -5.7111    3.3179   -0.1276 C.3       1 <0>        -0.1194
     16 C14        -5.8532    2.2257   -1.1896 C.3       1 <0>        -0.1129
     17 N1         -3.5470   -0.0703   -4.9115 N.am      1 <0>        -0.7203
     18 C15        -3.9508    0.3738   -6.1182 C.2       1 <0>         0.5181
     19 O1         -4.0829    1.5634   -6.3135 O.2       1 <0>        -0.5221
     20 C16        -4.2382   -0.6080   -7.2249 C.3       1 <0>         0.1354
     21 C17        -2.9749   -1.4148   -7.5317 C.3       1 <0>        -0.0387
     22 C18        -3.2934   -2.4784   -8.5506 C.2       1 <0>         0.0039
     23 C19        -2.6630   -2.6620   -9.7265 C.2       1 <0>        -0.0550
     24 N2         -3.2647   -3.7298  -10.3360 N.pl3     1 <0>        -0.5695
     25 C20        -4.2425   -4.1618   -9.5108 C.2       1 <0>         0.1934
     26 N3         -4.2505   -3.4119   -8.4428 N.2       1 <0>        -0.4537
     27 N4         -4.6571    0.1189   -8.4259 N.am      1 <0>        -0.7087
     28 C21        -5.4269   -0.4913   -9.3487 C.2       1 <0>         0.5135
     29 O2         -5.8579   -1.6052   -9.1382 O.2       1 <0>        -0.4991
     30 C22        -5.7520    0.2105  -10.6420 C.3       1 <0>         0.1494
     31 C23        -6.8497    1.2479  -10.3974 C.3       1 <0>        -0.1231
     32 C24        -6.3446    2.3017   -9.4098 C.3       1 <0>        -0.1084
     33 C25        -5.2125    3.1039  -10.0547 C.3       1 <0>        -0.1517
     34 C26        -7.4911    3.2447   -9.0394 C.3       1 <0>        -0.1427
     35 N5         -6.2173   -0.7700  -11.6261 N.am      1 <0>        -0.6939
     36 C27        -6.0362   -0.5421  -12.9420 C.2       1 <0>         0.6544
     37 O3         -5.5734    0.5170  -13.3172 O.2       1 <0>        -0.5631
     38 O4         -6.3680   -1.4878  -13.8410 O.3       1 <0>        -0.3569
     39 C28        -6.1491   -1.1786  -15.2188 C.3       1 <0>         0.1352
     40 C29        -4.6629   -0.8966  -15.4483 C.3       1 <0>        -0.1851
     41 C30        -6.5825   -2.3645  -16.0828 C.3       1 <0>        -0.1408
     42 C31        -6.9674    0.0566  -15.6005 C.3       1 <0>        -0.1865
     43 O5         -2.7508   -0.9301   -2.3207 O.3       1 <0>        -0.5424
     44 O6         -0.5625    1.4230   -4.0809 O.3       1 <0>        -0.5475
     45 H3          3.3550   -1.3379   -2.9107 H         1 <0>         0.0547
     46 H4          2.6749   -0.2176   -1.7063 H         1 <0>         0.0530
     47 H5          2.1120   -1.9050   -1.7699 H         1 <0>         0.0538
     48 H6          1.6674    0.2436   -3.8901 H         1 <0>         0.0758
     49 H7          0.8299   -2.6909   -3.8224 H         1 <0>         0.0537
     50 H8          0.3575   -1.5050   -5.0628 H         1 <0>         0.0538
     51 H9          2.0626   -1.9878   -4.8967 H         1 <0>         0.0542
     52 H10        -0.3005   -1.3051   -2.1479 H         1 <0>         0.0801
     53 H11         0.2456    0.3561   -1.8154 H         1 <0>         0.0655
     54 H12        -3.0472    1.8365   -4.1951 H         1 <0>         0.1125
     55 H13        -5.4792    1.3307   -3.7817 H         1 <0>         0.0671
     56 H14        -4.9801    0.1067   -2.5897 H         1 <0>         0.0729
     57 H15        -3.7300    1.8969   -1.3469 H         1 <0>         0.0705
     58 H16        -3.3804    3.4199   -3.2722 H         1 <0>         0.0629
     59 H17        -5.1326    3.7236   -3.3501 H         1 <0>         0.0631
     60 H18        -3.3246    4.3329   -0.9674 H         1 <0>         0.0595
     61 H19        -3.9700    5.5317   -2.1140 H         1 <0>         0.0608
     62 H20        -5.3466    5.4398   -0.0536 H         1 <0>         0.0595
     63 H21        -6.2807    4.9031   -1.4705 H         1 <0>         0.0606
     64 H22        -4.8781    3.0764    0.5327 H         1 <0>         0.0605
     65 H23        -6.6303    3.3801    0.4548 H         1 <0>         0.0604
     66 H24        -6.6861    2.4671   -1.8500 H         1 <0>         0.0608
     67 H25        -6.0407    1.2683   -0.7034 H         1 <0>         0.0615
     68 H26        -3.3707   -1.0145   -4.7762 H         1 <0>         0.3951
     69 H27        -5.0343   -1.2840   -6.9131 H         1 <0>         0.1269
     70 H28        -2.2068   -0.7505   -7.9278 H         1 <0>         0.0821
     71 H29        -2.6128   -1.8845   -6.6172 H         1 <0>         0.0837
     72 H30        -3.0322   -4.1058  -11.1993 H         1 <0>         0.4172
     73 H31        -1.8410   -2.0786  -10.1142 H         1 <0>         0.1667
     74 H32        -4.9054   -4.9930   -9.7013 H         1 <0>         0.2010
     75 H33        -4.3805    1.0393   -8.5569 H         1 <0>         0.4108
     76 H34        -4.8590    0.7086  -11.0196 H         1 <0>         0.1132
     77 H35        -7.1115    1.7290  -11.3398 H         1 <0>         0.0841
     78 H36        -7.7298    0.7551   -9.9842 H         1 <0>         0.0725
     79 H37        -5.9743    1.8091   -8.5107 H         1 <0>         0.0838
     80 H38        -4.8230    3.8249   -9.3361 H         1 <0>         0.0615
     81 H39        -4.4145    2.4264  -10.3586 H         1 <0>         0.0513
     82 H40        -5.5936    3.6318  -10.9289 H         1 <0>         0.0602
     83 H41        -8.2975    2.6732   -8.5800 H         1 <0>         0.0533
     84 H42        -7.1312    3.9954   -8.3359 H         1 <0>         0.0590
     85 H43        -7.8613    3.7372   -9.9386 H         1 <0>         0.0551
     86 H44        -6.6558   -1.5832  -11.3306 H         1 <0>         0.4145
     87 H45        -4.0799   -1.7765  -15.1764 H         1 <0>         0.0569
     88 H46        -4.4959   -0.6607  -16.4993 H         1 <0>         0.0707
     89 H47        -4.3541   -0.0517  -14.8328 H         1 <0>         0.0876
     90 H48        -7.6413   -2.5654  -15.9193 H         1 <0>         0.0672
     91 H49        -6.4156   -2.1286  -17.1338 H         1 <0>         0.0813
     92 H50        -5.9995   -3.2445  -15.8109 H         1 <0>         0.0656
     93 H51        -6.6586    0.9015  -14.9850 H         1 <0>         0.0882
     94 H52        -6.8004    0.2925  -16.6515 H         1 <0>         0.0705
     95 H53        -8.0262   -0.1443  -15.4370 H         1 <0>         0.0597
     96 H54        -2.8856   -1.6051   -2.9999 H         1 <0>         0.3702
     97 H55        -0.4278    2.0979   -3.4017 H         1 <0>         0.3743
@<TRIPOS>BOND
     1    1    2 1
     2    1   45 1
     3    1   46 1
     4    1   47 1
     5    2    3 1
     6    2    4 1
     7    2   48 1
     8    3   49 1
     9    3   50 1
    10    3   51 1
    11    4    5 1
    12    4   52 1
    13    4   53 1
    14    5    6 1
    15    5    7 1
    16    5   44 1
    17    7    8 1
    18    7    9 1
    19    7   43 1
    20    9   10 1
    21    9   17 1
    22    9   54 1
    23   10   11 1
    24   10   55 1
    25   10   56 1
    26   11   16 1
    27   11   12 1
    28   11   57 1
    29   12   13 1
    30   12   58 1
    31   12   59 1
    32   13   14 1
    33   13   60 1
    34   13   61 1
    35   14   15 1
    36   14   62 1
    37   14   63 1
    38   15   16 1
    39   15   64 1
    40   15   65 1
    41   16   66 1
    42   16   67 1
    43   17   18 am
    44   17   68 1
    45   18   19 2
    46   18   20 1
    47   20   21 1
    48   20   27 1
    49   20   69 1
    50   21   70 1
    51   21   71 1
    52   21   22 1
    53   22   23 2
    54   22   26 1
    55   23   24 1
    56   23   73 1
    57   24   25 1
    58   24   72 1
    59   25   74 1
    60   25   26 2
    61   27   28 am
    62   27   75 1
    63   28   29 2
    64   28   30 1
    65   30   31 1
    66   30   35 1
    67   30   76 1
    68   31   32 1
    69   31   77 1
    70   31   78 1
    71   32   33 1
    72   32   34 1
    73   32   79 1
    74   33   80 1
    75   33   81 1
    76   33   82 1
    77   34   83 1
    78   34   84 1
    79   34   85 1
    80   35   36 am
    81   35   86 1
    82   36   37 2
    83   36   38 1
    84   38   39 1
    85   39   40 1
    86   39   41 1
    87   39   42 1
    88   40   87 1
    89   40   88 1
    90   40   89 1
    91   41   90 1
    92   41   91 1
    93   41   92 1
    94   42   93 1
    95   42   94 1
    96   42   95 1
    97   43   96 1
    98   44   97 1
@<TRIPOS>MOLECULE
CHEMBL73216__3
   98    99     0     0     0
SMALL
USER_CHARGES

@<TRIPOS>ATOM
      1 C1          0.2589    0.4831   -1.8312 C.3       1 <0>        -0.1517
      2 C2         -0.5425    0.5052   -0.5281 C.3       1 <0>        -0.0940
      3 C3         -1.9226   -0.1103   -0.7676 C.3       1 <0>        -0.1467
      4 C4          0.1979   -0.3026    0.5397 C.3       1 <0>        -0.1475
      5 C5         -0.5334   -0.1708    1.8772 C.3       1 <0>         0.0802
      6 H1         -1.5680   -0.4926    1.7589 H         1 <0>         0.0951
      7 C6          0.1568   -1.0473    2.9243 C.3       1 <0>         0.0648
      8 H2          1.1914   -0.7255    3.0426 H         1 <0>         0.1183
      9 C7         -0.5745   -0.9155    4.2618 C.3       1 <0>         0.1178
     10 C8          0.1157   -1.7920    5.3088 C.3       1 <0>        -0.1251
     11 C9         -0.5372   -1.5656    6.6739 C.3       1 <0>        -0.0783
     12 C10        -0.2894   -0.1248    7.1251 C.3       1 <0>        -0.1072
     13 C11        -0.9423    0.1016    8.4902 C.3       1 <0>        -0.1099
     14 C12        -0.3373   -0.8639    9.5113 C.3       1 <0>        -0.1233
     15 C13        -0.5852   -2.3046    9.0601 C.3       1 <0>        -0.1161
     16 C14         0.0678   -2.5310    7.6950 C.3       1 <0>        -0.1169
     17 N1         -1.9651   -1.3479    4.1027 N.am      1 <0>        -0.7141
     18 C15        -2.9161   -0.8785    4.9344 C.2       1 <0>         0.5105
     19 O1         -2.6206   -0.0980    5.8144 O.2       1 <0>        -0.4894
     20 C16        -4.3466   -1.3234    4.7708 C.3       1 <0>         0.1278
     21 C17        -4.8466   -0.9315    3.3789 C.3       1 <0>        -0.0718
     22 C18        -6.2334   -1.4830    3.1696 C.2       1 <0>         0.0449
     23 C19        -7.3838   -0.8991    3.5557 C.2       1 <0>         0.0426
     24 N2         -8.3994   -1.7321    3.1708 N.pl3     1 <0>        -0.5003
     25 C20        -7.8338   -2.7969    2.5624 C.cat     1 <0>         0.3119
     26 N3         -6.5385   -2.6386    2.5610 N.pl3     1 <0>        -0.4669
     27 N4         -5.1786   -0.6766    5.7885 N.am      1 <0>        -0.7044
     28 C21        -6.3317   -1.2527    6.1820 C.2       1 <0>         0.5263
     29 O2         -6.7211   -2.2640    5.6374 O.2       1 <0>        -0.5413
     30 C22        -7.1373   -0.6403    7.2988 C.3       1 <0>         0.1469
     31 C23        -7.9450    0.5406    6.7568 C.3       1 <0>        -0.1265
     32 C24        -6.9906    1.6544    6.3215 C.3       1 <0>        -0.1050
     33 C25        -7.7867    2.7738    5.6477 C.3       1 <0>        -0.1494
     34 C26        -6.2644    2.2118    7.5475 C.3       1 <0>        -0.1571
     35 N5         -8.0504   -1.6447    7.8499 N.am      1 <0>        -0.7025
     36 C27        -8.5373   -1.5000    9.0982 C.2       1 <0>         0.6545
     37 O3         -8.2922   -0.4933    9.7331 O.2       1 <0>        -0.5529
     38 O4         -9.2952   -2.4709    9.6419 O.3       1 <0>        -0.3553
     39 C28        -9.7778   -2.2508   10.9689 C.3       1 <0>         0.1358
     40 C29       -10.6444   -0.9902   10.9938 C.3       1 <0>        -0.1864
     41 C30       -10.6132   -3.4529   11.4137 C.3       1 <0>        -0.1424
     42 C31        -8.5923   -2.0736   11.9198 C.3       1 <0>        -0.1875
     43 O5          0.1278   -2.4109    2.4979 O.3       1 <0>        -0.5380
     44 O6         -0.5044    1.1928    2.3035 O.3       1 <0>        -0.5506
     45 H3          0.4491   -0.5496   -2.1233 H         1 <0>         0.0546
     46 H4         -0.3089    0.9839   -2.6154 H         1 <0>         0.0564
     47 H5          1.2074    0.9994   -1.6832 H         1 <0>         0.0561
     48 H6         -0.6577    1.5349   -0.1898 H         1 <0>         0.0771
     49 H7         -1.8074   -1.1401   -1.1059 H         1 <0>         0.0530
     50 H8         -2.4935   -0.0946    0.1608 H         1 <0>         0.0475
     51 H9         -2.4501    0.4652   -1.5283 H         1 <0>         0.0556
     52 H10         0.2296   -1.3515    0.2448 H         1 <0>         0.0801
     53 H11         1.2145    0.0768    0.6425 H         1 <0>         0.0694
     54 H12        -0.5523    0.1247    4.5870 H         1 <0>         0.1150
     55 H13         0.0160   -2.8404    5.0278 H         1 <0>         0.0702
     56 H14         1.1721   -1.5293    5.3634 H         1 <0>         0.0754
     57 H15        -1.6100   -1.7429    6.5974 H         1 <0>         0.0686
     58 H16         0.7834    0.0525    7.2016 H         1 <0>         0.0494
     59 H17        -0.7204    0.5630    6.3977 H         1 <0>         0.0772
     60 H18        -0.7657    1.1281    8.8116 H         1 <0>         0.0561
     61 H19        -2.0150   -0.0757    8.4137 H         1 <0>         0.0596
     62 H20         0.7355   -0.6865    9.5878 H         1 <0>         0.0603
     63 H21        -0.8024   -0.7026   10.4838 H         1 <0>         0.0582
     64 H22        -0.1541   -2.9925    9.7876 H         1 <0>         0.0594
     65 H23        -1.6579   -2.4820    8.9836 H         1 <0>         0.0544
     66 H24        -0.1088   -3.5575    7.3736 H         1 <0>         0.0550
     67 H25         1.1405   -2.3537    7.7715 H         1 <0>         0.0614
     68 H26        -2.2014   -1.9722    3.3989 H         1 <0>         0.3904
     69 H27        -4.4061   -2.4056    4.8869 H         1 <0>         0.1216
     70 H28        -4.8710    0.1549    3.2942 H         1 <0>         0.1241
     71 H29        -4.1753   -1.3399    2.6235 H         1 <0>         0.1087
     72 H30        -9.3482   -1.5851    3.3092 H         1 <0>         0.4653
     73 H31        -7.4855    0.0449    4.0705 H         1 <0>         0.2130
     74 H32        -8.3657   -3.6381    2.1430 H         1 <0>         0.2641
     75 H33        -4.8995    0.1663    6.1792 H         1 <0>         0.4234
     76 H34        -6.4650   -0.2914    8.0827 H         1 <0>         0.1216
     77 H35        -8.5366    0.2142    5.9014 H         1 <0>         0.0637
     78 H36        -8.6089    0.9149    7.5361 H         1 <0>         0.0985
     79 H37        -6.2609    1.2533    5.6182 H         1 <0>         0.0669
     80 H38        -8.5164    3.1749    6.3510 H         1 <0>         0.0643
     81 H39        -7.1067    3.5673    5.3376 H         1 <0>         0.0656
     82 H40        -8.3040    2.3767    4.7743 H         1 <0>         0.0499
     83 H41        -5.6221    1.4399    7.9714 H         1 <0>         0.0552
     84 H42        -5.6575    3.0677    7.2523 H         1 <0>         0.0658
     85 H43        -6.9963    2.5248    8.2921 H         1 <0>         0.0681
     86 H44        -8.3046   -2.4138    7.3163 H         1 <0>         0.4123
     87 H45       -11.4890   -1.1164   10.3164 H         1 <0>         0.0594
     88 H46       -11.0125   -0.8223   12.0060 H         1 <0>         0.0745
     89 H47       -10.0493   -0.1337   10.6769 H         1 <0>         0.0868
     90 H48        -9.9957   -4.3510   11.3959 H         1 <0>         0.0676
     91 H49       -10.9812   -3.2850   12.4259 H         1 <0>         0.0850
     92 H50       -11.4577   -3.5791   10.7363 H         1 <0>         0.0671
     93 H51        -7.9972   -1.2172   11.6029 H         1 <0>         0.0868
     94 H52        -8.9604   -1.9057   12.9319 H         1 <0>         0.0747
     95 H53        -7.9749   -2.9717   11.9020 H         1 <0>         0.0599
     96 H54        -0.7633   -2.7648    2.3721 H         1 <0>         0.3646
     97 H55         0.3867    1.5467    2.4294 H         1 <0>         0.3808
     98 H56        -5.8973   -3.2596    2.1813 H         1 <0>         0.4615
@<TRIPOS>BOND
     1    1    2 1
     2    1   45 1
     3    1   46 1
     4    1   47 1
     5    2    3 1
     6    2    4 1
     7    2   48 1
     8    3   49 1
     9    3   50 1
    10    3   51 1
    11    4    5 1
    12    4   52 1
    13    4   53 1
    14    5    6 1
    15    5    7 1
    16    5   44 1
    17    7    8 1
    18    7    9 1
    19    7   43 1
    20    9   10 1
    21    9   17 1
    22    9   54 1
    23   10   11 1
    24   10   55 1
    25   10   56 1
    26   11   16 1
    27   11   12 1
    28   11   57 1
    29   12   13 1
    30   12   58 1
    31   12   59 1
    32   13   14 1
    33   13   60 1
    34   13   61 1
    35   14   15 1
    36   14   62 1
    37   14   63 1
    38   15   16 1
    39   15   64 1
    40   15   65 1
    41   16   66 1
    42   16   67 1
    43   17   18 am
    44   17   68 1
    45   18   19 2
    46   18   20 1
    47   20   21 1
    48   20   27 1
    49   20   69 1
    50   21   70 1
    51   21   71 1
    52   21   22 1
    53   22   23 2
    54   22   26 1
    55   23   24 1
    56   23   73 1
    57   24   25 1
    58   24   72 1
    59   25   74 1
    60   25   26 2
    61   26   98 1
    62   27   28 am
    63   27   75 1
    64   28   29 2
    65   28   30 1
    66   30   31 1
    67   30   35 1
    68   30   76 1
    69   31   32 1
    70   31   77 1
    71   31   78 1
    72   32   33 1
    73   32   34 1
    74   32   79 1
    75   33   80 1
    76   33   81 1
    77   33   82 1
    78   34   83 1
    79   34   84 1
    80   34   85 1
    81   35   36 am
    82   35   86 1
    83   36   37 2
    84   36   38 1
    85   38   39 1
    86   39   40 1
    87   39   41 1
    88   39   42 1
    89   40   87 1
    90   40   88 1
    91   40   89 1
    92   41   90 1
    93   41   91 1
    94   41   92 1
    95   42   93 1
    96   42   94 1
    97   42   95 1
    98   43   96 1
    99   44   97 1
@<TRIPOS>MOLECULE
CHEMBL73216__4
   97    98     0     0     0
SMALL
USER_CHARGES

@<TRIPOS>ATOM
      1 C1          0.6514   -0.2560    1.3577 C.3       1 <0>        -0.1492
      2 C2          0.0379   -0.0876   -0.0338 C.3       1 <0>        -0.0938
      3 C3          0.8806   -0.8497   -1.0584 C.3       1 <0>        -0.1491
      4 C4         -1.3882   -0.6419   -0.0329 C.3       1 <0>        -0.1450
      5 C5         -2.0504   -0.3483   -1.3805 C.3       1 <0>         0.0769
      6 H1         -1.4402   -0.7627   -2.1831 H         1 <0>         0.1015
      7 C6         -3.4406   -0.9861   -1.4154 C.3       1 <0>         0.0674
      8 H2         -4.0508   -0.5716   -0.6129 H         1 <0>         0.1127
      9 C7         -4.1028   -0.6924   -2.7631 C.3       1 <0>         0.1183
     10 C8         -5.4931   -1.3302   -2.7980 C.3       1 <0>        -0.1226
     11 C9         -6.2040   -0.9331   -4.0933 C.3       1 <0>        -0.0807
     12 C10        -6.4511    0.5768   -4.0971 C.3       1 <0>        -0.1046
     13 C11        -7.1621    0.9739   -5.3924 C.3       1 <0>        -0.1107
     14 C12        -8.5001    0.2378   -5.4861 C.3       1 <0>        -0.1207
     15 C13        -8.2530   -1.2721   -5.4822 C.3       1 <0>        -0.1168
     16 C14        -7.5421   -1.6692   -4.1869 C.3       1 <0>        -0.1152
     17 N1         -3.2828   -1.2495   -3.8417 N.am      1 <0>        -0.7181
     18 C15        -3.3513   -0.7235   -5.0808 C.2       1 <0>         0.5149
     19 O1         -4.0919    0.2109   -5.3027 O.2       1 <0>        -0.5109
     20 C16        -2.5078   -1.2966   -6.1903 C.3       1 <0>         0.1394
     21 C17        -1.0282   -1.1776   -5.8196 C.3       1 <0>        -0.0372
     22 C18        -0.1906   -1.8596   -6.8705 C.2       1 <0>         0.0087
     23 C19         0.8200   -1.3003   -7.5629 C.2       1 <0>        -0.0572
     24 N2          1.3037   -2.2642   -8.4059 N.pl3     1 <0>        -0.5710
     25 C20         0.5713   -3.3798   -8.1991 C.2       1 <0>         0.1930
     26 N3         -0.3172   -3.1318   -7.2759 N.2       1 <0>        -0.4519
     27 N4         -2.7619   -0.5566   -7.4289 N.am      1 <0>        -0.7054
     28 C21        -2.5487   -1.1462   -8.6220 C.2       1 <0>         0.5093
     29 O2         -2.1464   -2.2894   -8.6702 O.2       1 <0>        -0.4982
     30 C22        -2.8101   -0.3851   -9.8961 C.3       1 <0>         0.1479
     31 C23        -1.9242    0.8616   -9.9363 C.3       1 <0>        -0.1195
     32 C24        -2.2775    1.6989  -11.1671 C.3       1 <0>        -0.0913
     33 C25        -3.7086    2.2235  -11.0334 C.3       1 <0>        -0.1403
     34 C26        -1.3099    2.8791  -11.2761 C.3       1 <0>        -0.1475
     35 N5         -2.5042   -1.2389  -11.0465 N.am      1 <0>        -0.6920
     36 C27        -3.1015   -1.0107  -12.2329 C.2       1 <0>         0.6532
     37 O3         -3.8939   -0.0967  -12.3483 O.2       1 <0>        -0.5543
     38 O4         -2.8203   -1.7954  -13.2902 O.3       1 <0>        -0.3581
     39 C28        -3.4900   -1.4960  -14.5166 C.3       1 <0>         0.1369
     40 C29        -3.1383   -0.0732  -14.9556 C.3       1 <0>        -0.1858
     41 C30        -3.0464   -2.4867  -15.5949 C.3       1 <0>        -0.1415
     42 C31        -5.0022   -1.6077  -14.3124 C.3       1 <0>        -0.1858
     43 O5         -3.3209   -2.3994   -1.2414 O.3       1 <0>        -0.5435
     44 O6         -2.1701    1.0650   -1.5546 O.3       1 <0>        -0.5483
     45 H3          1.6949    0.0579    1.3351 H         1 <0>         0.0547
     46 H4          0.1030    0.3569    2.0731 H         1 <0>         0.0530
     47 H5          0.5932   -1.3027    1.6562 H         1 <0>         0.0538
     48 H6          0.0163    0.9702   -0.2958 H         1 <0>         0.0758
     49 H7          0.9021   -1.9076   -0.7964 H         1 <0>         0.0536
     50 H8          0.4435   -0.7298   -2.0497 H         1 <0>         0.0540
     51 H9          1.8966   -0.4548   -1.0590 H         1 <0>         0.0540
     52 H10        -1.3592   -1.7191    0.1307 H         1 <0>         0.0799
     53 H11        -1.9615   -0.1687    0.7644 H         1 <0>         0.0656
     54 H12        -4.1942    0.3856   -2.8958 H         1 <0>         0.1100
     55 H13        -5.3963   -2.4151   -2.7545 H         1 <0>         0.0693
     56 H14        -6.0738   -0.9827   -1.9435 H         1 <0>         0.0694
     57 H15        -5.5812   -1.2016   -4.9466 H         1 <0>         0.0748
     58 H16        -7.0740    0.8452   -3.2438 H         1 <0>         0.0446
     59 H17        -5.4979    1.1011   -4.0304 H         1 <0>         0.0791
     60 H18        -7.3381    2.0495   -5.3952 H         1 <0>         0.0531
     61 H19        -6.5392    0.7055   -6.2457 H         1 <0>         0.0635
     62 H20        -9.1230    0.5062   -4.6328 H         1 <0>         0.0569
     63 H21        -9.0066    0.5207   -6.4089 H         1 <0>         0.0558
     64 H22        -9.2062   -1.7964   -5.5489 H         1 <0>         0.0564
     65 H23        -7.6302   -1.5405   -6.3355 H         1 <0>         0.0576
     66 H24        -7.3660   -2.7449   -4.1842 H         1 <0>         0.0552
     67 H25        -8.1649   -1.4008   -3.3336 H         1 <0>         0.0576
     68 H26        -2.6905   -1.9969   -3.6642 H         1 <0>         0.3942
     69 H27        -2.7627   -2.3464   -6.3354 H         1 <0>         0.1221
     70 H28        -0.7517   -0.1248   -5.7615 H         1 <0>         0.0816
     71 H29        -0.8563   -1.6522   -4.8535 H         1 <0>         0.0818
     72 H30         2.0357   -2.1645   -9.0344 H         1 <0>         0.4167
     73 H31         1.1795   -0.2860   -7.4710 H         1 <0>         0.1661
     74 H32         0.7019   -4.3222   -8.7101 H         1 <0>         0.1998
     75 H33        -3.0837    0.3576   -7.3904 H         1 <0>         0.4090
     76 H34        -3.8581   -0.0875   -9.9330 H         1 <0>         0.1187
     77 H35        -2.0879    1.4529   -9.0354 H         1 <0>         0.0782
     78 H36        -0.8775    0.5620   -9.9890 H         1 <0>         0.0680
     79 H37        -2.1992    1.0810  -12.0616 H         1 <0>         0.0762
     80 H38        -3.9603    2.8200  -11.9102 H         1 <0>         0.0496
     81 H39        -4.3980    1.3828  -10.9557 H         1 <0>         0.0727
     82 H40        -3.7869    2.8414  -10.1389 H         1 <0>         0.0428
     83 H41        -0.2904    2.5054  -11.3714 H         1 <0>         0.0482
     84 H42        -1.5617    3.4756  -12.1530 H         1 <0>         0.0544
     85 H43        -1.3883    3.4970  -10.3816 H         1 <0>         0.0535
     86 H44        -1.8717   -1.9686  -10.9544 H         1 <0>         0.4125
     87 H45        -2.0610    0.0064  -15.1011 H         1 <0>         0.0574
     88 H46        -3.6491    0.1552  -15.8910 H         1 <0>         0.0692
     89 H47        -3.4543    0.6326  -14.1874 H         1 <0>         0.0901
     90 H48        -3.2970   -3.5004  -15.2821 H         1 <0>         0.0665
     91 H49        -3.5572   -2.2584  -16.5303 H         1 <0>         0.0806
     92 H50        -1.9691   -2.4072  -15.7404 H         1 <0>         0.0656
     93 H51        -5.3182   -0.9019  -13.5442 H         1 <0>         0.0891
     94 H52        -5.5130   -1.3794  -15.2478 H         1 <0>         0.0693
     95 H53        -5.2527   -2.6214  -13.9997 H         1 <0>         0.0584
     96 H54        -2.7896   -2.8357   -1.9214 H         1 <0>         0.3709
     97 H55        -2.7014    1.5014   -0.8745 H         1 <0>         0.3750
@<TRIPOS>BOND
     1    1    2 1
     2    1   45 1
     3    1   46 1
     4    1   47 1
     5    2    3 1
     6    2    4 1
     7    2   48 1
     8    3   49 1
     9    3   50 1
    10    3   51 1
    11    4    5 1
    12    4   52 1
    13    4   53 1
    14    5    6 1
    15    5    7 1
    16    5   44 1
    17    7    8 1
    18    7    9 1
    19    7   43 1
    20    9   10 1
    21    9   17 1
    22    9   54 1
    23   10   11 1
    24   10   55 1
    25   10   56 1
    26   11   16 1
    27   11   12 1
    28   11   57 1
    29   12   13 1
    30   12   58 1
    31   12   59 1
    32   13   14 1
    33   13   60 1
    34   13   61 1
    35   14   15 1
    36   14   62 1
    37   14   63 1
    38   15   16 1
    39   15   64 1
    40   15   65 1
    41   16   66 1
    42   16   67 1
    43   17   18 am
    44   17   68 1
    45   18   19 2
    46   18   20 1
    47   20   21 1
    48   20   27 1
    49   20   69 1
    50   21   70 1
    51   21   71 1
    52   21   22 1
    53   22   23 2
    54   22   26 1
    55   23   24 1
    56   23   73 1
    57   24   25 1
    58   24   72 1
    59   25   74 1
    60   25   26 2
    61   27   28 am
    62   27   75 1
    63   28   29 2
    64   28   30 1
    65   30   31 1
    66   30   35 1
    67   30   76 1
    68   31   32 1
    69   31   77 1
    70   31   78 1
    71   32   33 1
    72   32   34 1
    73   32   79 1
    74   33   80 1
    75   33   81 1
    76   33   82 1
    77   34   83 1
    78   34   84 1
    79   34   85 1
    80   35   36 am
    81   35   86 1
    82   36   37 2
    83   36   38 1
    84   38   39 1
    85   39   40 1
    86   39   41 1
    87   39   42 1
    88   40   87 1
    89   40   88 1
    90   40   89 1
    91   41   90 1
    92   41   91 1
    93   41   92 1
    94   42   93 1
    95   42   94 1
    96   42   95 1
    97   43   96 1
    98   44   97 1
@<TRIPOS>MOLECULE
CHEMBL73216__5
   97    98     0     0     0
SMALL
USER_CHARGES

@<TRIPOS>ATOM
      1 C1         -0.0187    1.5258    0.0104 C.3       1 <0>        -0.1494
      2 C2          0.0021   -0.0041    0.0020 C.3       1 <0>        -0.0940
      3 C3          0.7421   -0.5109    1.2415 C.3       1 <0>        -0.1489
      4 C4         -1.4333   -0.5336    0.0129 C.3       1 <0>        -0.1453
      5 C5         -1.4157   -2.0577   -0.1212 C.3       1 <0>         0.0772
      6 H1         -0.7891   -2.4841    0.6622 H         1 <0>         0.0998
      7 C6         -2.8406   -2.5981    0.0146 C.3       1 <0>         0.0668
      8 H2         -3.4671   -2.1717   -0.7688 H         1 <0>         0.1143
      9 C7         -2.8229   -4.1221   -0.1195 C.3       1 <0>         0.1180
     10 C8         -4.2478   -4.6626    0.0163 C.3       1 <0>        -0.1227
     11 C9         -4.2480   -6.1707   -0.2413 C.3       1 <0>        -0.0807
     12 C10        -3.8496   -6.4400   -1.6938 C.3       1 <0>        -0.1052
     13 C11        -3.8498   -7.9482   -1.9515 C.3       1 <0>        -0.1110
     14 C12        -5.2497   -8.5094   -1.6941 C.3       1 <0>        -0.1210
     15 C13        -5.6480   -8.2401   -0.2416 C.3       1 <0>        -0.1169
     16 C14        -5.6479   -6.7319    0.0160 C.3       1 <0>        -0.1153
     17 N1         -1.9808   -4.6953    0.9334 N.am      1 <0>        -0.7184
     18 C15        -1.4030   -5.8995    0.7534 C.2       1 <0>         0.5146
     19 O1         -1.5802   -6.5087   -0.2802 O.2       1 <0>        -0.5030
     20 C16        -0.5368   -6.4891    1.8365 C.3       1 <0>         0.1367
     21 C17         0.6403   -5.5522    2.1147 C.3       1 <0>        -0.0491
     22 C18         1.4376   -6.0794    3.2798 C.2       1 <0>        -0.0174
     23 C19         2.4169   -7.0025    3.2303 C.2       1 <0>        -0.0055
     24 N2          2.8710   -7.1930    4.4779 N.2       1 <0>        -0.4844
     25 C20         2.2103   -6.4231    5.2986 C.2       1 <0>         0.1920
     26 N3          1.3096   -5.7077    4.5909 N.pl3     1 <0>        -0.5601
     27 N4         -0.0307   -7.7932    1.4014 N.am      1 <0>        -0.7070
     28 C21         0.3222   -8.7183    2.3157 C.2       1 <0>         0.5187
     29 O2          0.2209   -8.4712    3.4987 O.2       1 <0>        -0.5112
     30 C22         0.8428  -10.0598    1.8681 C.3       1 <0>         0.1508
     31 C23         2.1100   -9.8626    1.0336 C.3       1 <0>        -0.1257
     32 C24         2.5683  -11.2114    0.4756 C.3       1 <0>        -0.0905
     33 C25         1.5182  -11.7421   -0.5024 C.3       1 <0>        -0.1402
     34 C26         3.9016  -11.0351   -0.2539 C.3       1 <0>        -0.1483
     35 N5          1.1538  -10.8794    3.0419 N.am      1 <0>        -0.6914
     36 C27         1.1449  -12.2238    2.9466 C.2       1 <0>         0.6541
     37 O3          0.8790  -12.7560    1.8871 O.2       1 <0>        -0.5562
     38 O4          1.4306  -12.9770    4.0253 O.3       1 <0>        -0.3565
     39 C28         1.4026  -14.3952    3.8522 C.3       1 <0>         0.1368
     40 C29         2.4235  -14.7992    2.7866 C.3       1 <0>        -0.1859
     41 C30         1.7506  -15.0777    5.1766 C.3       1 <0>        -0.1416
     42 C31         0.0037  -14.8272    3.4080 C.3       1 <0>        -0.1854
     43 O5         -3.3665   -2.2385    1.2937 O.3       1 <0>        -0.5423
     44 O6         -0.8897   -2.4172   -1.4003 O.3       1 <0>        -0.5480
     45 H3          1.0039    1.9031    0.0027 H         1 <0>         0.0552
     46 H4         -0.5459    1.8868   -0.8726 H         1 <0>         0.0537
     47 H5         -0.5289    1.8773    0.9072 H         1 <0>         0.0537
     48 H6          0.5123   -0.3556   -0.8948 H         1 <0>         0.0763
     49 H7          0.2319   -0.1594    2.1383 H         1 <0>         0.0530
     50 H8          0.7568   -1.6008    1.2356 H         1 <0>         0.0524
     51 H9          1.7647   -0.1336    1.2338 H         1 <0>         0.0553
     52 H10        -1.9156   -0.2570    0.9504 H         1 <0>         0.0797
     53 H11        -1.9862   -0.1019   -0.8214 H         1 <0>         0.0665
     54 H12        -2.4217   -4.3964   -1.0952 H         1 <0>         0.1117
     55 H13        -4.6166   -4.4659    1.0230 H         1 <0>         0.0686
     56 H14        -4.8941   -4.1698   -0.7101 H         1 <0>         0.0708
     57 H15        -3.5345   -6.6535    0.4265 H         1 <0>         0.0735
     58 H16        -4.5631   -5.9573   -2.3617 H         1 <0>         0.0455
     59 H17        -2.8523   -6.0402   -1.8772 H         1 <0>         0.0789
     60 H18        -3.5660   -8.1400   -2.9863 H         1 <0>         0.0542
     61 H19        -3.1364   -8.4309   -1.2836 H         1 <0>         0.0635
     62 H20        -5.9631   -8.0266   -2.3620 H         1 <0>         0.0574
     63 H21        -5.2498   -9.5838   -1.8777 H         1 <0>         0.0567
     64 H22        -6.6453   -8.6399   -0.0583 H         1 <0>         0.0570
     65 H23        -4.9346   -8.7229    0.4262 H         1 <0>         0.0572
     66 H24        -5.9316   -6.5401    1.0508 H         1 <0>         0.0545
     67 H25        -6.3613   -6.2492   -0.6519 H         1 <0>         0.0584
     68 H26        -1.8392   -4.2080    1.7601 H         1 <0>         0.3914
     69 H27        -1.1255   -6.6127    2.7456 H         1 <0>         0.1122
     70 H28         1.2783   -5.4985    1.2325 H         1 <0>         0.0977
     71 H29         0.2644   -4.5570    2.3523 H         1 <0>         0.0794
     72 H30         0.6871   -5.0538    4.9457 H         1 <0>         0.4143
     73 H31         2.7740   -7.5019    2.3418 H         1 <0>         0.1553
     74 H32         2.3611   -6.3650    6.3665 H         1 <0>         0.2024
     75 H33         0.0503   -7.9908    0.4552 H         1 <0>         0.4129
     76 H34         0.0853  -10.5609    1.2654 H         1 <0>         0.1195
     77 H35         1.8999   -9.1809    0.2095 H         1 <0>         0.0779
     78 H36         2.8964   -9.4428    1.6609 H         1 <0>         0.0759
     79 H37         2.6930  -11.9200    1.2945 H         1 <0>         0.0777
     80 H38         0.5683  -11.8677    0.0172 H         1 <0>         0.0719
     81 H39         1.3934  -11.0336   -1.3213 H         1 <0>         0.0422
     82 H40         1.8446  -12.7031   -0.9000 H         1 <0>         0.0496
     83 H41         4.6497  -10.6571    0.4429 H         1 <0>         0.0512
     84 H42         4.2281  -11.9961   -0.6514 H         1 <0>         0.0541
     85 H43         3.7769  -10.3266   -1.0727 H         1 <0>         0.0530
     86 H44         1.3660  -10.4545    3.8876 H         1 <0>         0.4162
     87 H45         3.4201  -14.4914    3.1031 H         1 <0>         0.0585
     88 H46         2.4022  -15.8809    2.6546 H         1 <0>         0.0686
     89 H47         2.1756  -14.3130    1.8431 H         1 <0>         0.0902
     90 H48         1.0233  -14.7899    5.9358 H         1 <0>         0.0659
     91 H49         1.7292  -16.1594    5.0446 H         1 <0>         0.0801
     92 H50         2.7472  -14.7699    5.4931 H         1 <0>         0.0667
     93 H51        -0.2442  -14.3411    2.4645 H         1 <0>         0.0889
     94 H52        -0.0177  -15.9090    3.2760 H         1 <0>         0.0688
     95 H53        -0.7236  -14.5395    4.1672 H         1 <0>         0.0576
     96 H54        -2.8578   -2.5847    2.0396 H         1 <0>         0.3685
     97 H55        -1.3985   -2.0711   -2.1462 H         1 <0>         0.3761
@<TRIPOS>BOND
     1    1    2 1
     2    1   45 1
     3    1   46 1
     4    1   47 1
     5    2    3 1
     6    2    4 1
     7    2   48 1
     8    3   49 1
     9    3   50 1
    10    3   51 1
    11    4    5 1
    12    4   52 1
    13    4   53 1
    14    5    6 1
    15    5    7 1
    16    5   44 1
    17    7    8 1
    18    7    9 1
    19    7   43 1
    20    9   10 1
    21    9   17 1
    22    9   54 1
    23   10   11 1
    24   10   55 1
    25   10   56 1
    26   11   16 1
    27   11   12 1
    28   11   57 1
    29   12   13 1
    30   12   58 1
    31   12   59 1
    32   13   14 1
    33   13   60 1
    34   13   61 1
    35   14   15 1
    36   14   62 1
    37   14   63 1
    38   15   16 1
    39   15   64 1
    40   15   65 1
    41   16   66 1
    42   16   67 1
    43   17   18 am
    44   17   68 1
    45   18   19 2
    46   18   20 1
    47   20   21 1
    48   20   27 1
    49   20   69 1
    50   21   70 1
    51   21   71 1
    52   21   22 1
    53   22   23 2
    54   22   26 1
    55   23   24 1
    56   23   73 1
    57   24   25 2
    58   25   74 1
    59   25   26 1
    60   26   72 1
    61   27   28 am
    62   27   75 1
    63   28   29 2
    64   28   30 1
    65   30   31 1
    66   30   35 1
    67   30   76 1
    68   31   32 1
    69   31   77 1
    70   31   78 1
    71   32   33 1
    72   32   34 1
    73   32   79 1
    74   33   80 1
    75   33   81 1
    76   33   82 1
    77   34   83 1
    78   34   84 1
    79   34   85 1
    80   35   36 am
    81   35   86 1
    82   36   37 2
    83   36   38 1
    84   38   39 1
    85   39   40 1
    86   39   41 1
    87   39   42 1
    88   40   87 1
    89   40   88 1
    90   40   89 1
    91   41   90 1
    92   41   91 1
    93   41   92 1
    94   42   93 1
    95   42   94 1
    96   42   95 1
    97   43   96 1
    98   44   97 1
@<TRIPOS>MOLECULE
CHEMBL73216__6
   98    99     0     0     0
SMALL
USER_CHARGES

@<TRIPOS>ATOM
      1 C1          0.8577   -0.2389   -1.2372 C.3       1 <0>        -0.1509
      2 C2         -0.0447   -0.0888   -0.0108 C.3       1 <0>        -0.0947
      3 C3         -1.3338   -0.8844   -0.2257 C.3       1 <0>        -0.1475
      4 C4          0.6827   -0.6207    1.2257 C.3       1 <0>        -0.1461
      5 C5         -0.1607   -0.3438    2.4719 C.3       1 <0>         0.0782
      6 H1         -1.1500   -0.7837    2.3462 H         1 <0>         0.0973
      7 C6          0.5199   -0.9604    3.6956 C.3       1 <0>         0.0655
      8 H2          1.5092   -0.5206    3.8213 H         1 <0>         0.1177
      9 C7         -0.3234   -0.6836    4.9418 C.3       1 <0>         0.1172
     10 C8          0.3571   -1.3002    6.1656 C.3       1 <0>        -0.1242
     11 C9         -0.4191   -0.9180    7.4275 C.3       1 <0>        -0.0766
     12 C10        -0.3368    0.5951    7.6382 C.3       1 <0>        -0.1098
     13 C11        -1.1130    0.9773    8.9001 C.3       1 <0>        -0.1090
     14 C12        -0.5070    0.2605   10.1083 C.3       1 <0>        -0.1242
     15 C13        -0.5892   -1.2527    9.8976 C.3       1 <0>        -0.1143
     16 C14         0.1870   -1.6349    8.6357 C.3       1 <0>        -0.1177
     17 N1         -1.6532   -1.2748    4.7729 N.am      1 <0>        -0.7135
     18 C15        -2.7049   -0.7727    5.4499 C.2       1 <0>         0.5108
     19 O1         -2.5504    0.1686    6.1989 O.2       1 <0>        -0.4923
     20 C16        -4.0727   -1.3809    5.2761 C.3       1 <0>         0.1277
     21 C17        -4.0332   -2.8525    5.6929 C.3       1 <0>        -0.0715
     22 C18        -5.3668   -3.4922    5.4043 C.2       1 <0>         0.0400
     23 C19        -5.7541   -4.0175    4.2263 C.2       1 <0>         0.0541
     24 N2         -7.0271   -4.4890    4.4023 N.pl3     1 <0>        -0.4991
     25 C20        -7.3735   -4.2353    5.6827 C.cat     1 <0>         0.3075
     26 N3         -6.3738   -3.6436    6.2772 N.pl3     1 <0>        -0.4740
     27 N4         -5.0367   -0.6620    6.1128 N.am      1 <0>        -0.7060
     28 C21        -6.3434   -0.6567    5.7828 C.2       1 <0>         0.5158
     29 O2         -6.7212   -1.2471    4.7930 O.2       1 <0>        -0.5350
     30 C22        -7.3350    0.0828    6.6435 C.3       1 <0>         0.1421
     31 C23        -7.3137   -0.4971    8.0592 C.3       1 <0>        -0.1235
     32 C24        -8.2272    0.3324    8.9639 C.3       1 <0>        -0.0911
     33 C25        -8.3039   -0.3191   10.3461 C.3       1 <0>        -0.1503
     34 C26        -7.6630    1.7482    9.0980 C.3       1 <0>        -0.1445
     35 N5         -8.6779   -0.0626    6.0764 N.am      1 <0>        -0.6990
     36 C27        -9.6213    0.8654    6.3316 C.2       1 <0>         0.6527
     37 O3         -9.3581    1.8228    7.0321 O.2       1 <0>        -0.5436
     38 O4        -10.8555    0.7318    5.8104 O.3       1 <0>        -0.3566
     39 C28       -11.8055    1.7527    6.1222 C.3       1 <0>         0.1375
     40 C29       -11.2894    3.1013    5.6164 C.3       1 <0>        -0.1874
     41 C30       -13.1399    1.4313    5.4464 C.3       1 <0>        -0.1426
     42 C31       -12.0042    1.8187    7.6378 C.3       1 <0>        -0.1867
     43 O5          0.6462   -2.3717    3.5098 O.3       1 <0>        -0.5385
     44 O6         -0.2870    1.0674    2.6577 O.3       1 <0>        -0.5502
     45 H3          1.1715   -1.2784   -1.3324 H         1 <0>         0.0545
     46 H4          0.3087    0.0582   -2.1308 H         1 <0>         0.0565
     47 H5          1.7358    0.3966   -1.1222 H         1 <0>         0.0552
     48 H6         -0.2874    0.9637    0.1351 H         1 <0>         0.0764
     49 H7         -1.0912   -1.9370   -0.3716 H         1 <0>         0.0534
     50 H8         -1.9767   -0.7774    0.6480 H         1 <0>         0.0493
     51 H9         -1.8520   -0.5055   -1.1067 H         1 <0>         0.0559
     52 H10         0.8368   -1.6948    1.1226 H         1 <0>         0.0803
     53 H11         1.6475   -0.1228    1.3219 H         1 <0>         0.0684
     54 H12        -0.4198    0.3929    5.0836 H         1 <0>         0.1136
     55 H13         0.3737   -2.3853    6.0638 H         1 <0>         0.0708
     56 H14         1.3784   -0.9266    6.2401 H         1 <0>         0.0753
     57 H15        -1.4624   -1.2131    7.3156 H         1 <0>         0.0681
     58 H16         0.7065    0.8902    7.7500 H         1 <0>         0.0498
     59 H17        -0.7686    1.1058    6.7774 H         1 <0>         0.0781
     60 H18        -1.0544    2.0553    9.0502 H         1 <0>         0.0562
     61 H19        -2.1563    0.6822    8.7882 H         1 <0>         0.0590
     62 H20         0.5364    0.5556   10.2201 H         1 <0>         0.0605
     63 H21        -1.0599    0.5327   11.0073 H         1 <0>         0.0581
     64 H22        -0.1575   -1.7634   10.7583 H         1 <0>         0.0590
     65 H23        -1.6325   -1.5478    9.7857 H         1 <0>         0.0534
     66 H24         0.1284   -2.7129    8.4856 H         1 <0>         0.0552
     67 H25         1.2303   -1.3398    8.7475 H         1 <0>         0.0617
     68 H26        -1.7767   -2.0276    4.1738 H         1 <0>         0.3922
     69 H27        -4.3729   -1.3072    4.2308 H         1 <0>         0.1273
     70 H28        -3.2538   -3.3682    5.1320 H         1 <0>         0.1253
     71 H29        -3.8200   -2.9223    6.7596 H         1 <0>         0.1080
     72 H30        -7.5774   -4.9241    3.7325 H         1 <0>         0.4668
     73 H31        -5.1724   -4.0584    3.3173 H         1 <0>         0.2226
     74 H32        -8.3196   -4.4846    6.1400 H         1 <0>         0.2620
     75 H33        -4.7345   -0.1898    6.9044 H         1 <0>         0.4212
     76 H34        -7.0682    1.1391    6.6795 H         1 <0>         0.1310
     77 H35        -7.6658   -1.5284    8.0347 H         1 <0>         0.0596
     78 H36        -6.2957   -0.4699    8.4477 H         1 <0>         0.0819
     79 H37        -9.2252    0.3787    8.5281 H         1 <0>         0.0802
     80 H38        -7.3059   -0.3654   10.7819 H         1 <0>         0.0551
     81 H39        -8.9547    0.2718   10.9907 H         1 <0>         0.0609
     82 H40        -8.7058   -1.3278   10.2506 H         1 <0>         0.0485
     83 H41        -7.6083    2.2123    8.1132 H         1 <0>         0.0725
     84 H42        -8.3138    2.3391    9.7425 H         1 <0>         0.0563
     85 H43        -6.6649    1.7019    9.5337 H         1 <0>         0.0453
     86 H44        -8.8880   -0.8268    5.5171 H         1 <0>         0.4085
     87 H45       -11.1478    3.0543    4.5366 H         1 <0>         0.0594
     88 H46       -12.0140    3.8801    5.8543 H         1 <0>         0.0739
     89 H47       -10.3387    3.3303    6.0979 H         1 <0>         0.0878
     90 H48       -13.5076    0.4705    5.8067 H         1 <0>         0.0665
     91 H49       -13.8646    2.2100    5.6842 H         1 <0>         0.0847
     92 H50       -12.9983    1.3843    4.3666 H         1 <0>         0.0671
     93 H51       -11.0535    2.0477    8.1193 H         1 <0>         0.0887
     94 H52       -12.7289    2.5974    7.8757 H         1 <0>         0.0738
     95 H53       -12.3719    0.8579    7.9982 H         1 <0>         0.0585
     96 H54        -0.1971   -2.8298    3.3913 H         1 <0>         0.3652
     97 H55         0.5563    1.5255    2.7763 H         1 <0>         0.3793
     98 H56        -6.3617   -3.3567    7.2038 H         1 <0>         0.4578
@<TRIPOS>BOND
     1    1    2 1
     2    1   45 1
     3    1   46 1
     4    1   47 1
     5    2    3 1
     6    2    4 1
     7    2   48 1
     8    3   49 1
     9    3   50 1
    10    3   51 1
    11    4    5 1
    12    4   52 1
    13    4   53 1
    14    5    6 1
    15    5    7 1
    16    5   44 1
    17    7    8 1
    18    7    9 1
    19    7   43 1
    20    9   10 1
    21    9   17 1
    22    9   54 1
    23   10   11 1
    24   10   55 1
    25   10   56 1
    26   11   16 1
    27   11   12 1
    28   11   57 1
    29   12   13 1
    30   12   58 1
    31   12   59 1
    32   13   14 1
    33   13   60 1
    34   13   61 1
    35   14   15 1
    36   14   62 1
    37   14   63 1
    38   15   16 1
    39   15   64 1
    40   15   65 1
    41   16   66 1
    42   16   67 1
    43   17   18 am
    44   17   68 1
    45   18   19 2
    46   18   20 1
    47   20   21 1
    48   20   27 1
    49   20   69 1
    50   21   70 1
    51   21   71 1
    52   21   22 1
    53   22   23 2
    54   22   26 1
    55   23   24 1
    56   23   73 1
    57   24   25 1
    58   24   72 1
    59   25   74 1
    60   25   26 2
    61   26   98 1
    62   27   28 am
    63   27   75 1
    64   28   29 2
    65   28   30 1
    66   30   31 1
    67   30   35 1
    68   30   76 1
    69   31   32 1
    70   31   77 1
    71   31   78 1
    72   32   33 1
    73   32   34 1
    74   32   79 1
    75   33   80 1
    76   33   81 1
    77   33   82 1
    78   34   83 1
    79   34   84 1
    80   34   85 1
    81   35   36 am
    82   35   86 1
    83   36   37 2
    84   36   38 1
    85   38   39 1
    86   39   40 1
    87   39   41 1
    88   39   42 1
    89   40   87 1
    90   40   88 1
    91   40   89 1
    92   41   90 1
    93   41   91 1
    94   41   92 1
    95   42   93 1
    96   42   94 1
    97   42   95 1
    98   43   96 1
    99   44   97 1
@<TRIPOS>MOLECULE
CHEMBL73216__7
   97    98     0     0     0
SMALL
USER_CHARGES

@<TRIPOS>ATOM
      1 C1          2.1485    1.3597   -1.4523 C.3       1 <0>        -0.1489
      2 C2          1.9751   -0.1548   -1.3222 C.3       1 <0>        -0.0944
      3 C3          2.1582   -0.5654    0.1403 C.3       1 <0>        -0.1497
      4 C4          0.5733   -0.5498   -1.7910 C.3       1 <0>        -0.1446
      5 C5          0.4421   -2.0741   -1.7790 C.3       1 <0>         0.0757
      6 H1          0.6915   -2.4524   -0.7877 H         1 <0>         0.1014
      7 C6         -0.9956   -2.4650   -2.1273 C.3       1 <0>         0.0675
      8 H2         -1.2449   -2.0867   -3.1187 H         1 <0>         0.1137
      9 C7         -1.1267   -3.9893   -2.1153 C.3       1 <0>         0.1175
     10 C8         -2.5644   -4.3802   -2.4636 C.3       1 <0>        -0.1223
     11 C9         -2.6664   -5.9028   -2.5740 C.3       1 <0>        -0.0798
     12 C10        -1.8186   -6.3867   -3.7522 C.3       1 <0>        -0.1070
     13 C11        -1.9206   -7.9093   -3.8626 C.3       1 <0>        -0.1104
     14 C12        -3.3807   -8.3077   -4.0873 C.3       1 <0>        -0.1212
     15 C13        -4.2284   -7.8238   -2.9091 C.3       1 <0>        -0.1156
     16 C14        -4.1264   -6.3012   -2.7987 C.3       1 <0>        -0.1158
     17 N1         -0.7916   -4.4978   -0.7829 N.am      1 <0>        -0.7167
     18 C15        -0.3465   -5.7615   -0.6362 C.2       1 <0>         0.5151
     19 O1         -0.2235   -6.4777   -1.6073 O.2       1 <0>        -0.5066
     20 C16        -0.0017   -6.2846    0.7344 C.3       1 <0>         0.1296
     21 C17        -1.2403   -6.2226    1.6304 C.3       1 <0>        -0.0499
     22 C18        -0.8668   -6.6293    3.0326 C.2       1 <0>        -0.0198
     23 C19        -0.3555   -5.8325    3.9903 C.2       1 <0>         0.0007
     24 N2         -0.1646   -6.5759    5.0903 N.2       1 <0>        -0.4832
     25 C20        -0.5382   -7.8030    4.8506 C.2       1 <0>         0.1905
     26 N3         -0.9877   -7.8783    3.5794 N.pl3     1 <0>        -0.5642
     27 N4          0.4542   -7.6727    0.6268 N.am      1 <0>        -0.7088
     28 C21         1.2685   -8.1894    1.5684 C.2       1 <0>         0.5125
     29 O2          1.6728   -7.4882    2.4716 O.2       1 <0>        -0.5028
     30 C22         1.6765   -9.6385    1.4989 C.3       1 <0>         0.1483
     31 C23         0.4822  -10.5226    1.8630 C.3       1 <0>        -0.1241
     32 C24        -0.6463  -10.2960    0.8550 C.3       1 <0>        -0.1138
     33 C25        -0.2084  -10.7984   -0.5222 C.3       1 <0>        -0.1542
     34 C26        -1.8928  -11.0610    1.3043 C.3       1 <0>        -0.1463
     35 N5          2.7708   -9.8834    2.4416 N.am      1 <0>        -0.6971
     36 C27         3.5859  -10.9426    2.2675 C.2       1 <0>         0.6563
     37 O3          3.4697  -11.6430    1.2814 O.2       1 <0>        -0.5632
     38 O4          4.5288  -11.2246    3.1862 O.3       1 <0>        -0.3546
     39 C28         5.3574  -12.3620    2.9374 C.3       1 <0>         0.1349
     40 C29         6.1119  -12.1651    1.6211 C.3       1 <0>        -0.1867
     41 C30         6.3607  -12.5220    4.0814 C.3       1 <0>        -0.1414
     42 C31         4.4867  -13.6165    2.8435 C.3       1 <0>        -0.1856
     43 O5         -1.8888   -1.9024   -1.1642 O.3       1 <0>        -0.5423
     44 O6          1.3353   -2.6367   -2.7422 O.3       1 <0>        -0.5485
     45 H3          3.1472    1.6411   -1.1183 H         1 <0>         0.0551
     46 H4          2.0181    1.6522   -2.4942 H         1 <0>         0.0530
     47 H5          1.4039    1.8649   -0.8371 H         1 <0>         0.0541
     48 H6          2.7197   -0.6600   -1.9373 H         1 <0>         0.0753
     49 H7          1.4136   -0.0602    0.7555 H         1 <0>         0.0543
     50 H8          2.0347   -1.6444    0.2330 H         1 <0>         0.0535
     51 H9          3.1569   -0.2840    0.4743 H         1 <0>         0.0552
     52 H10        -0.1694   -0.1159   -1.1215 H         1 <0>         0.0805
     53 H11         0.4108   -0.1791   -2.8031 H         1 <0>         0.0657
     54 H12        -0.4454   -4.4184   -2.8500 H         1 <0>         0.1104
     55 H13        -3.2366   -4.0268   -1.6817 H         1 <0>         0.0702
     56 H14        -2.8437   -3.9274   -3.4150 H         1 <0>         0.0706
     57 H15        -2.3029   -6.3591   -1.6532 H         1 <0>         0.0736
     58 H16        -2.1822   -5.9305   -4.6730 H         1 <0>         0.0459
     59 H17        -0.7785   -6.1029   -3.5921 H         1 <0>         0.0792
     60 H18        -1.3167   -8.2540   -4.7019 H         1 <0>         0.0537
     61 H19        -1.5571   -8.3655   -2.9418 H         1 <0>         0.0625
     62 H20        -3.7442   -7.8514   -5.0080 H         1 <0>         0.0575
     63 H21        -3.4533   -9.3924   -4.1659 H         1 <0>         0.0562
     64 H22        -5.2686   -8.1076   -3.0692 H         1 <0>         0.0567
     65 H23        -3.8649   -8.2800   -1.9883 H         1 <0>         0.0567
     66 H24        -4.7304   -5.9565   -1.9593 H         1 <0>         0.0554
     67 H25        -4.4900   -5.8450   -3.7195 H         1 <0>         0.0583
     68 H26        -0.8899   -3.9251   -0.0063 H         1 <0>         0.3941
     69 H27         0.7909   -5.6744    1.1674 H         1 <0>         0.1218
     70 H28        -1.6318   -5.2054    1.6392 H         1 <0>         0.1000
     71 H29        -2.0014   -6.9015    1.2457 H         1 <0>         0.0798
     72 H30        -1.3307   -8.6700    3.1361 H         1 <0>         0.4104
     73 H31        -0.1374   -4.7795    3.8901 H         1 <0>         0.1616
     74 H32        -0.4977   -8.6220    5.5535 H         1 <0>         0.2005
     75 H33         0.1701   -8.2199   -0.1220 H         1 <0>         0.4139
     76 H34         2.0083   -9.8744    0.4878 H         1 <0>         0.1170
     77 H35         0.7848  -11.5695    1.8403 H         1 <0>         0.0893
     78 H36         0.1325  -10.2671    2.8633 H         1 <0>         0.0670
     79 H37        -0.8741   -9.2316    0.7979 H         1 <0>         0.0775
     80 H38         0.7211  -10.3070   -0.8096 H         1 <0>         0.0563
     81 H39        -0.0525  -11.8765   -0.4830 H         1 <0>         0.0641
     82 H40        -0.9820  -10.5697   -1.2553 H         1 <0>         0.0623
     83 H41        -2.2048  -10.7030    2.2855 H         1 <0>         0.0495
     84 H42        -2.6967  -10.8995    0.5862 H         1 <0>         0.0620
     85 H43        -1.6650  -12.1254    1.3614 H         1 <0>         0.0616
     86 H44         2.9088   -9.2832    3.1910 H         1 <0>         0.4169
     87 H45         6.7322  -11.2713    1.6880 H         1 <0>         0.0596
     88 H46         6.7439  -13.0326    1.4313 H         1 <0>         0.0710
     89 H47         5.3971  -12.0511    0.8061 H         1 <0>         0.0874
     90 H48         5.8232  -12.6622    5.0192 H         1 <0>         0.0672
     91 H49         6.9928  -13.3895    3.8916 H         1 <0>         0.0815
     92 H50         6.9810  -11.6282    4.1483 H         1 <0>         0.0673
     93 H51         3.7718  -13.5025    2.0286 H         1 <0>         0.0873
     94 H52         5.1187  -14.4841    2.6537 H         1 <0>         0.0708
     95 H53         3.9491  -13.7568    3.7813 H         1 <0>         0.0592
     96 H54        -1.7250   -2.1958   -0.2574 H         1 <0>         0.3699
     97 H55         1.1716   -2.3433   -3.6490 H         1 <0>         0.3752
@<TRIPOS>BOND
     1    1    2 1
     2    1   45 1
     3    1   46 1
     4    1   47 1
     5    2    3 1
     6    2    4 1
     7    2   48 1
     8    3   49 1
     9    3   50 1
    10    3   51 1
    11    4    5 1
    12    4   52 1
    13    4   53 1
    14    5    6 1
    15    5    7 1
    16    5   44 1
    17    7    8 1
    18    7    9 1
    19    7   43 1
    20    9   10 1
    21    9   17 1
    22    9   54 1
    23   10   11 1
    24   10   55 1
    25   10   56 1
    26   11   16 1
    27   11   12 1
    28   11   57 1
    29   12   13 1
    30   12   58 1
    31   12   59 1
    32   13   14 1
    33   13   60 1
    34   13   61 1
    35   14   15 1
    36   14   62 1
    37   14   63 1
    38   15   16 1
    39   15   64 1
    40   15   65 1
    41   16   66 1
    42   16   67 1
    43   17   18 am
    44   17   68 1
    45   18   19 2
    46   18   20 1
    47   20   21 1
    48   20   27 1
    49   20   69 1
    50   21   70 1
    51   21   71 1
    52   21   22 1
    53   22   23 2
    54   22   26 1
    55   23   24 1
    56   23   73 1
    57   24   25 2
    58   25   74 1
    59   25   26 1
    60   26   72 1
    61   27   28 am
    62   27   75 1
    63   28   29 2
    64   28   30 1
    65   30   31 1
    66   30   35 1
    67   30   76 1
    68   31   32 1
    69   31   77 1
    70   31   78 1
    71   32   33 1
    72   32   34 1
    73   32   79 1
    74   33   80 1
    75   33   81 1
    76   33   82 1
    77   34   83 1
    78   34   84 1
    79   34   85 1
    80   35   36 am
    81   35   86 1
    82   36   37 2
    83   36   38 1
    84   38   39 1
    85   39   40 1
    86   39   41 1
    87   39   42 1
    88   40   87 1
    89   40   88 1
    90   40   89 1
    91   41   90 1
    92   41   91 1
    93   41   92 1
    94   42   93 1
    95   42   94 1
    96   42   95 1
    97   43   96 1
    98   44   97 1
@<TRIPOS>MOLECULE
CHEMBL73216__8
   97    98     0     0     0
SMALL
USER_CHARGES

@<TRIPOS>ATOM
      1 C1          1.3988    1.0547    0.9422 C.3       1 <0>        -0.1489
      2 C2          0.7235    1.1294   -0.4286 C.3       1 <0>        -0.0946
      3 C3          1.2477   -0.0002   -1.3176 C.3       1 <0>        -0.1492
      4 C4         -0.7903    0.9849   -0.2600 C.3       1 <0>        -0.1442
      5 C5         -1.4764    1.1967   -1.6110 C.3       1 <0>         0.0762
      6 H1         -1.0684    0.4960   -2.3395 H         1 <0>         0.1007
      7 C6         -2.9805    0.9592   -1.4619 C.3       1 <0>         0.0677
      8 H2         -3.3885    1.6599   -0.7335 H         1 <0>         0.1130
      9 C7         -3.6667    1.1710   -2.8130 C.3       1 <0>         0.1176
     10 C8         -5.1708    0.9335   -2.6639 C.3       1 <0>        -0.1214
     11 C9         -5.8727    1.2657   -3.9821 C.3       1 <0>        -0.0804
     12 C10        -5.7260    2.7602   -4.2755 C.3       1 <0>        -0.1062
     13 C11        -6.4279    3.0924   -5.5938 C.3       1 <0>        -0.1111
     14 C12        -7.9121    2.7373   -5.4849 C.3       1 <0>        -0.1207
     15 C13        -8.0588    1.2429   -5.1915 C.3       1 <0>        -0.1162
     16 C14        -7.3569    0.9107   -3.8732 C.3       1 <0>        -0.1149
     17 N1         -3.1183    0.2292   -3.7921 N.am      1 <0>        -0.7193
     18 C15        -3.1639    0.5215   -5.1070 C.2       1 <0>         0.5137
     19 O1         -3.6588    1.5641   -5.4797 O.2       1 <0>        -0.5074
     20 C16        -2.5998   -0.4472   -6.1142 C.3       1 <0>         0.1390
     21 C17        -3.3386   -1.7827   -6.0066 C.3       1 <0>        -0.0396
     22 C18        -2.6950   -2.7883   -6.9261 C.2       1 <0>         0.0058
     23 C19        -2.2229   -3.9981   -6.5696 C.2       1 <0>        -0.0517
     24 N2         -1.7268   -4.5800   -7.7049 N.pl3     1 <0>        -0.5691
     25 C20        -1.9133   -3.7049   -8.7165 C.2       1 <0>         0.1891
     26 N3         -2.4973   -2.6377   -8.2442 N.2       1 <0>        -0.4550
     27 N4         -2.7694    0.0973   -7.4636 N.am      1 <0>        -0.7084
     28 C21        -1.9444   -0.2916   -8.4558 C.2       1 <0>         0.5527
     29 O2         -1.0065   -1.0214   -8.2137 O.2       1 <0>        -0.5221
     30 C22        -2.1872    0.1805   -9.8662 C.3       1 <0>         0.1520
     31 C23        -3.4326   -0.5086  -10.4274 C.3       1 <0>        -0.1115
     32 C24        -4.6489   -0.1346   -9.5778 C.3       1 <0>        -0.1057
     33 C25        -4.9389    1.3597   -9.7323 C.3       1 <0>        -0.1561
     34 C26        -5.8633   -0.9405  -10.0431 C.3       1 <0>        -0.1396
     35 N5         -1.0284   -0.1517  -10.6987 N.am      1 <0>        -0.6919
     36 C27        -0.7261    0.6108  -11.7682 C.2       1 <0>         0.6538
     37 O3         -1.3592    1.6239  -11.9905 O.2       1 <0>        -0.5656
     38 O4          0.2773    0.2500  -12.5902 O.3       1 <0>        -0.3576
     39 C28         0.5427    1.1050  -13.7040 C.3       1 <0>         0.1352
     40 C29         0.9073    2.5024  -13.1989 C.3       1 <0>        -0.1865
     41 C30         1.7075    0.5366  -14.5171 C.3       1 <0>        -0.1407
     42 C31        -0.7026    1.1913  -14.5887 C.3       1 <0>        -0.1856
     43 O5         -3.2096   -0.3789   -1.0159 O.3       1 <0>        -0.5430
     44 O6         -1.2474    2.5348   -2.0571 O.3       1 <0>        -0.5478
     45 H3          2.4813    1.0696    0.8153 H         1 <0>         0.0549
     46 H4          1.0919    1.9091    1.5455 H         1 <0>         0.0531
     47 H5          1.1043    0.1321    1.4426 H         1 <0>         0.0537
     48 H6          0.9474    2.0902   -0.8921 H         1 <0>         0.0759
     49 H7          1.0238   -0.9610   -0.8541 H         1 <0>         0.0533
     50 H8          0.7666    0.0530   -2.2942 H         1 <0>         0.0537
     51 H9          2.3262    0.1027   -1.4377 H         1 <0>         0.0546
     52 H10        -1.0208   -0.0133    0.1121 H         1 <0>         0.0796
     53 H11        -1.1494    1.7294    0.4505 H         1 <0>         0.0657
     54 H12        -3.4920    2.1917   -3.1532 H         1 <0>         0.1097
     55 H13        -5.3502   -0.1112   -2.4099 H         1 <0>         0.0692
     56 H14        -5.5628    1.5723   -1.8725 H         1 <0>         0.0691
     57 H15        -5.4199    0.6907   -4.7899 H         1 <0>         0.0758
     58 H16        -6.1788    3.3352   -3.4678 H         1 <0>         0.0445
     59 H17        -4.6686    3.0131   -4.3531 H         1 <0>         0.0791
     60 H18        -6.3234    4.1570   -5.8028 H         1 <0>         0.0532
     61 H19        -5.9751    2.5174   -6.4015 H         1 <0>         0.0645
     62 H20        -8.3649    3.3124   -4.6772 H         1 <0>         0.0563
     63 H21        -8.4122    2.9740   -6.4241 H         1 <0>         0.0561
     64 H22        -9.1162    0.9900   -5.1139 H         1 <0>         0.0559
     65 H23        -7.6060    0.6679   -5.9992 H         1 <0>         0.0587
     66 H24        -7.4614   -0.1540   -3.6642 H         1 <0>         0.0550
     67 H25        -7.8097    1.4857   -3.0655 H         1 <0>         0.0570
     68 H26        -2.7225   -0.6046   -3.4940 H         1 <0>         0.3923
     69 H27        -1.5393   -0.6016   -5.9153 H         1 <0>         0.1117
     70 H28        -3.2874   -2.1445   -4.9796 H         1 <0>         0.0827
     71 H29        -4.3816   -1.6449   -6.2917 H         1 <0>         0.0826
     72 H30        -1.3178   -5.4570   -7.7707 H         1 <0>         0.4180
     73 H31        -2.2332   -4.4266   -5.5783 H         1 <0>         0.1689
     74 H32        -1.6297   -3.8636   -9.7464 H         1 <0>         0.1976
     75 H33        -3.4755    0.7378   -7.6429 H         1 <0>         0.4099
     76 H34        -2.3377    1.2601   -9.8672 H         1 <0>         0.1101
     77 H35        -3.5945   -0.1854  -11.4557 H         1 <0>         0.0702
     78 H36        -3.2916   -1.5892  -10.4041 H         1 <0>         0.0833
     79 H37        -4.4436   -0.3585   -8.5310 H         1 <0>         0.0882
     80 H38        -5.7577    1.6413   -9.0703 H         1 <0>         0.0574
     81 H39        -4.0481    1.9315   -9.4720 H         1 <0>         0.0536
     82 H40        -5.2173    1.5710  -10.7648 H         1 <0>         0.0581
     83 H41        -5.6567   -2.0051   -9.9331 H         1 <0>         0.0531
     84 H42        -6.7298   -0.6741   -9.4379 H         1 <0>         0.0531
     85 H43        -6.0686   -0.7166  -11.0900 H         1 <0>         0.0516
     86 H44        -0.4787   -0.9204  -10.4802 H         1 <0>         0.4136
     87 H45         1.7945    2.4409  -12.5686 H         1 <0>         0.0588
     88 H46         1.1097    3.1545  -14.0485 H         1 <0>         0.0698
     89 H47         0.0775    2.9073  -12.6197 H         1 <0>         0.0882
     90 H48         1.4477   -0.4590  -14.8769 H         1 <0>         0.0662
     91 H49         1.9099    1.1887  -15.3667 H         1 <0>         0.0805
     92 H50         2.5947    0.4751  -13.8868 H         1 <0>         0.0662
     93 H51        -1.5324    1.5962  -14.0095 H         1 <0>         0.0885
     94 H52        -0.5002    1.8434  -15.4384 H         1 <0>         0.0695
     95 H53        -0.9624    0.1958  -14.9486 H         1 <0>         0.0587
     96 H54        -2.8719   -1.0571   -1.6169 H         1 <0>         0.3694
     97 H55        -1.5851    3.2130   -1.4561 H         1 <0>         0.3750
@<TRIPOS>BOND
     1    1    2 1
     2    1   45 1
     3    1   46 1
     4    1   47 1
     5    2    3 1
     6    2    4 1
     7    2   48 1
     8    3   49 1
     9    3   50 1
    10    3   51 1
    11    4    5 1
    12    4   52 1
    13    4   53 1
    14    5    6 1
    15    5    7 1
    16    5   44 1
    17    7    8 1
    18    7    9 1
    19    7   43 1
    20    9   10 1
    21    9   17 1
    22    9   54 1
    23   10   11 1
    24   10   55 1
    25   10   56 1
    26   11   16 1
    27   11   12 1
    28   11   57 1
    29   12   13 1
    30   12   58 1
    31   12   59 1
    32   13   14 1
    33   13   60 1
    34   13   61 1
    35   14   15 1
    36   14   62 1
    37   14   63 1
    38   15   16 1
    39   15   64 1
    40   15   65 1
    41   16   66 1
    42   16   67 1
    43   17   18 am
    44   17   68 1
    45   18   19 2
    46   18   20 1
    47   20   21 1
    48   20   27 1
    49   20   69 1
    50   21   70 1
    51   21   71 1
    52   21   22 1
    53   22   23 2
    54   22   26 1
    55   23   24 1
    56   23   73 1
    57   24   25 1
    58   24   72 1
    59   25   74 1
    60   25   26 2
    61   27   28 am
    62   27   75 1
    63   28   29 2
    64   28   30 1
    65   30   31 1
    66   30   35 1
    67   30   76 1
    68   31   32 1
    69   31   77 1
    70   31   78 1
    71   32   33 1
    72   32   34 1
    73   32   79 1
    74   33   80 1
    75   33   81 1
    76   33   82 1
    77   34   83 1
    78   34   84 1
    79   34   85 1
    80   35   36 am
    81   35   86 1
    82   36   37 2
    83   36   38 1
    84   38   39 1
    85   39   40 1
    86   39   41 1
    87   39   42 1
    88   40   87 1
    89   40   88 1
    90   40   89 1
    91   41   90 1
    92   41   91 1
    93   41   92 1
    94   42   93 1
    95   42   94 1
    96   42   95 1
    97   43   96 1
    98   44   97 1
@<TRIPOS>MOLECULE
CHEMBL73216__9
   98    99     0     0     0
SMALL
USER_CHARGES

@<TRIPOS>ATOM
      1 C1         -0.2786   -1.7853   -1.9605 C.3       1 <0>        -0.1510
      2 C2         -0.9676   -1.4025   -0.6492 C.3       1 <0>        -0.0944
      3 C3         -2.3627   -2.0292   -0.6043 C.3       1 <0>        -0.1475
      4 C4         -0.1398   -1.9158    0.5307 C.3       1 <0>        -0.1464
      5 C5         -0.7622   -1.4286    1.8407 C.3       1 <0>         0.0785
      6 H1         -1.8062   -1.7387    1.8844 H         1 <0>         0.0976
      7 C6         -0.0010   -2.0324    3.0226 C.3       1 <0>         0.0653
      8 H2          1.0431   -1.7223    2.9790 H         1 <0>         0.1174
      9 C7         -0.6234   -1.5452    4.3326 C.3       1 <0>         0.1177
     10 C8          0.1378   -2.1490    5.5145 C.3       1 <0>        -0.1243
     11 C9         -0.4033   -1.5657    6.8213 C.3       1 <0>        -0.0764
     12 C10        -0.1059   -0.0658    6.8721 C.3       1 <0>        -0.1092
     13 C11        -0.6470    0.5176    8.1789 C.3       1 <0>        -0.1089
     14 C12         0.0264   -0.1763    9.3646 C.3       1 <0>        -0.1244
     15 C13        -0.2711   -1.6763    9.3138 C.3       1 <0>        -0.1145
     16 C14         0.2700   -2.2596    8.0070 C.3       1 <0>        -0.1178
     17 N1         -2.0266   -1.9619    4.3913 N.am      1 <0>        -0.7135
     18 C15        -2.9044   -1.2694    5.1438 C.2       1 <0>         0.5111
     19 O1         -2.5326   -0.3011    5.7725 O.2       1 <0>        -0.4920
     20 C16        -4.3478   -1.6981    5.2042 C.3       1 <0>         0.1283
     21 C17        -4.4340   -3.1235    5.7535 C.3       1 <0>        -0.0716
     22 C18        -5.8636   -3.5972    5.6992 C.2       1 <0>         0.0397
     23 C19        -6.4719   -4.1572    4.6362 C.2       1 <0>         0.0537
     24 N2         -7.7568   -4.4360    5.0167 N.pl3     1 <0>        -0.4998
     25 C20        -7.8891   -4.0364    6.2999 C.cat     1 <0>         0.3113
     26 N3         -6.7514   -3.5404    6.7030 N.pl3     1 <0>        -0.4734
     27 N4         -5.0905   -0.7906    6.0823 N.am      1 <0>        -0.7066
     28 C21        -6.4194   -0.6342    5.9212 C.2       1 <0>         0.5271
     29 O2         -7.0005   -1.2448    5.0491 O.2       1 <0>        -0.5378
     30 C22        -7.1833    0.2993    6.8245 C.3       1 <0>         0.1494
     31 C23        -6.6297    1.7180    6.6773 C.3       1 <0>        -0.1301
     32 C24        -6.9293    2.2390    5.2703 C.3       1 <0>        -0.0937
     33 C25        -6.5496    3.7185    5.1827 C.3       1 <0>        -0.1491
     34 C26        -6.1165    1.4424    4.2477 C.3       1 <0>        -0.1724
     35 N5         -8.6005    0.2871    6.4533 N.am      1 <0>        -0.6987
     36 C27        -9.5360    0.6491    7.3534 C.2       1 <0>         0.6531
     37 O3         -9.2003    1.0716    8.4421 O.2       1 <0>        -0.5561
     38 O4        -10.8425    0.5427    7.0463 O.3       1 <0>        -0.3555
     39 C28       -11.7793    0.9444    8.0479 C.3       1 <0>         0.1361
     40 C29       -11.5567    2.4184    8.3924 C.3       1 <0>        -0.1885
     41 C30       -13.2028    0.7531    7.5209 C.3       1 <0>        -0.1426
     42 C31       -11.5811    0.0918    9.3028 C.3       1 <0>        -0.1849
     43 O5         -0.0775   -3.4580    2.9602 O.3       1 <0>        -0.5385
     44 O6         -0.6857   -0.0030    1.9032 O.3       1 <0>        -0.5501
     45 H3         -0.1137   -2.8625   -1.9834 H         1 <0>         0.0545
     46 H4         -0.9102   -1.4965   -2.8006 H         1 <0>         0.0565
     47 H5          0.6790   -1.2696   -2.0318 H         1 <0>         0.0552
     48 H6         -1.0544   -0.3177   -0.5875 H         1 <0>         0.0762
     49 H7         -2.2759   -3.1139   -0.6659 H         1 <0>         0.0534
     50 H8         -2.8536   -1.7565    0.3299 H         1 <0>         0.0495
     51 H9         -2.9525   -1.6635   -1.4448 H         1 <0>         0.0558
     52 H10        -0.1262   -3.0057    0.5182 H         1 <0>         0.0803
     53 H11         0.8798   -1.5388    0.4505 H         1 <0>         0.0683
     54 H12        -0.5650   -0.4578    4.3802 H         1 <0>         0.1135
     55 H13         0.0055   -3.2310    5.5173 H         1 <0>         0.0706
     56 H14         1.1980   -1.9129    5.4227 H         1 <0>         0.0750
     57 H15        -1.4806   -1.7244    6.8714 H         1 <0>         0.0682
     58 H16         0.9714    0.0929    6.8220 H         1 <0>         0.0494
     59 H17        -0.5856    0.4286    6.0273 H         1 <0>         0.0782
     60 H18        -0.4351    1.5862    8.2150 H         1 <0>         0.0559
     61 H19        -1.7243    0.3589    8.2290 H         1 <0>         0.0590
     62 H20         1.1036   -0.0177    9.3145 H         1 <0>         0.0604
     63 H21        -0.3592    0.2392   10.2956 H         1 <0>         0.0582
     64 H22         0.2086   -2.1706   10.1586 H         1 <0>         0.0590
     65 H23        -1.3484   -1.8349    9.3639 H         1 <0>         0.0535
     66 H24         0.0581   -3.3282    7.9709 H         1 <0>         0.0551
     67 H25         1.3473   -2.1009    7.9569 H         1 <0>         0.0615
     68 H26        -2.3240   -2.7363    3.8885 H         1 <0>         0.3919
     69 H27        -4.7780   -1.6679    4.2031 H         1 <0>         0.1277
     70 H28        -3.8094   -3.7833    5.1513 H         1 <0>         0.1245
     71 H29        -4.0859   -3.1364    6.7864 H         1 <0>         0.1076
     72 H30        -8.4441   -4.8443    4.4672 H         1 <0>         0.4663
     73 H31        -6.0307   -4.3490    3.6693 H         1 <0>         0.2220
     74 H32        -8.7866   -4.1177    6.8951 H         1 <0>         0.2602
     75 H33        -4.6258   -0.3022    6.7798 H         1 <0>         0.4209
     76 H34        -7.0759   -0.0272    7.8589 H         1 <0>         0.1159
     77 H35        -7.0999    2.3697    7.4138 H         1 <0>         0.0913
     78 H36        -5.5518    1.7059    6.8384 H         1 <0>         0.0835
     79 H37        -7.9924    2.1235    5.0588 H         1 <0>         0.0714
     80 H38        -5.4866    3.8340    5.3942 H         1 <0>         0.0576
     81 H39        -6.7631    4.0897    4.1803 H         1 <0>         0.0580
     82 H40        -7.1287    4.2860    5.9112 H         1 <0>         0.0564
     83 H41        -6.5491    0.4484    4.1345 H         1 <0>         0.0674
     84 H42        -6.1349    1.9582    3.2877 H         1 <0>         0.0579
     85 H43        -5.0863    1.3532    4.5925 H         1 <0>         0.0577
     86 H44        -8.8655    0.0185    5.5597 H         1 <0>         0.4145
     87 H45       -11.6979    3.0258    7.4984 H         1 <0>         0.0614
     88 H46       -12.2712    2.7249    9.1564 H         1 <0>         0.0745
     89 H47       -10.5425    2.5547    8.7678 H         1 <0>         0.0871
     90 H48       -13.3614   -0.2970    7.2754 H         1 <0>         0.0659
     91 H49       -13.9173    1.0596    8.2848 H         1 <0>         0.0850
     92 H50       -13.3440    1.3605    6.6268 H         1 <0>         0.0688
     93 H51       -10.5669    0.2281    9.6782 H         1 <0>         0.0860
     94 H52       -12.2956    0.3983   10.0667 H         1 <0>         0.0748
     95 H53       -11.7397   -0.9583    9.0573 H         1 <0>         0.0568
     96 H54        -0.9793   -3.8054    2.9941 H         1 <0>         0.3651
     97 H55         0.2161    0.3443    1.8692 H         1 <0>         0.3792
     98 H56        -6.5760   -3.1849    7.5883 H         1 <0>         0.4585
@<TRIPOS>BOND
     1    1    2 1
     2    1   45 1
     3    1   46 1
     4    1   47 1
     5    2    3 1
     6    2    4 1
     7    2   48 1
     8    3   49 1
     9    3   50 1
    10    3   51 1
    11    4    5 1
    12    4   52 1
    13    4   53 1
    14    5    6 1
    15    5    7 1
    16    5   44 1
    17    7    8 1
    18    7    9 1
    19    7   43 1
    20    9   10 1
    21    9   17 1
    22    9   54 1
    23   10   11 1
    24   10   55 1
    25   10   56 1
    26   11   16 1
    27   11   12 1
    28   11   57 1
    29   12   13 1
    30   12   58 1
    31   12   59 1
    32   13   14 1
    33   13   60 1
    34   13   61 1
    35   14   15 1
    36   14   62 1
    37   14   63 1
    38   15   16 1
    39   15   64 1
    40   15   65 1
    41   16   66 1
    42   16   67 1
    43   17   18 am
    44   17   68 1
    45   18   19 2
    46   18   20 1
    47   20   21 1
    48   20   27 1
    49   20   69 1
    50   21   70 1
    51   21   71 1
    52   21   22 1
    53   22   23 2
    54   22   26 1
    55   23   24 1
    56   23   73 1
    57   24   25 1
    58   24   72 1
    59   25   74 1
    60   25   26 2
    61   26   98 1
    62   27   28 am
    63   27   75 1
    64   28   29 2
    65   28   30 1
    66   30   31 1
    67   30   35 1
    68   30   76 1
    69   31   32 1
    70   31   77 1
    71   31   78 1
    72   32   33 1
    73   32   34 1
    74   32   79 1
    75   33   80 1
    76   33   81 1
    77   33   82 1
    78   34   83 1
    79   34   84 1
    80   34   85 1
    81   35   36 am
    82   35   86 1
    83   36   37 2
    84   36   38 1
    85   38   39 1
    86   39   40 1
    87   39   41 1
    88   39   42 1
    89   40   87 1
    90   40   88 1
    91   40   89 1
    92   41   90 1
    93   41   91 1
    94   41   92 1
    95   42   93 1
    96   42   94 1
    97   42   95 1
    98   43   96 1
    99   44   97 1
@<TRIPOS>MOLECULE
CHEMBL73216__10
   97    98     0     0     0
SMALL
USER_CHARGES

@<TRIPOS>ATOM
      1 C1         -0.0187    1.5258    0.0104 C.3       1 <0>        -0.1490
      2 C2          0.0021   -0.0041    0.0020 C.3       1 <0>        -0.0943
      3 C3          0.7421   -0.5109    1.2415 C.3       1 <0>        -0.1497
      4 C4         -1.4333   -0.5336    0.0129 C.3       1 <0>        -0.1447
      5 C5         -1.4157   -2.0577   -0.1212 C.3       1 <0>         0.0759
      6 H1         -0.7891   -2.4841    0.6622 H         1 <0>         0.1014
      7 C6         -2.8406   -2.5981    0.0146 C.3       1 <0>         0.0674
      8 H2         -3.4671   -2.1717   -0.7688 H         1 <0>         0.1136
      9 C7         -2.8229   -4.1221   -0.1195 C.3       1 <0>         0.1178
     10 C8         -4.2478   -4.6626    0.0163 C.3       1 <0>        -0.1224
     11 C9         -4.2480   -6.1707   -0.2413 C.3       1 <0>        -0.0797
     12 C10        -3.8496   -6.4400   -1.6938 C.3       1 <0>        -0.1064
     13 C11        -3.8498   -7.9482   -1.9515 C.3       1 <0>        -0.1101
     14 C12        -5.2497   -8.5094   -1.6941 C.3       1 <0>        -0.1216
     15 C13        -5.6480   -8.2401   -0.2416 C.3       1 <0>        -0.1159
     16 C14        -5.6479   -6.7319    0.0160 C.3       1 <0>        -0.1159
     17 N1         -1.9808   -4.6953    0.9334 N.am      1 <0>        -0.7172
     18 C15        -1.4030   -5.8995    0.7534 C.2       1 <0>         0.5154
     19 O1         -1.5802   -6.5087   -0.2802 O.2       1 <0>        -0.5069
     20 C16        -0.5368   -6.4891    1.8365 C.3       1 <0>         0.1342
     21 C17        -1.3631   -6.6626    3.1125 C.3       1 <0>        -0.0491
     22 C18        -0.4690   -7.1362    4.2294 C.2       1 <0>        -0.0180
     23 C19         0.2840   -6.3650    5.0368 C.2       1 <0>        -0.0009
     24 N2          0.9283   -7.1688    5.8957 N.2       1 <0>        -0.4852
     25 C20         0.6032   -8.4088    5.6513 C.2       1 <0>         0.1945
     26 N3         -0.2709   -8.4324    4.6221 N.pl3     1 <0>        -0.5627
     27 N4         -0.0307   -7.7932    1.4014 N.am      1 <0>        -0.7084
     28 C21         1.1133   -8.2799    1.9217 C.2       1 <0>         0.5084
     29 O2          1.7239   -7.6382    2.7502 O.2       1 <0>        -0.5024
     30 C22         1.6339   -9.6214    1.4741 C.3       1 <0>         0.1500
     31 C23         1.8975   -9.5892   -0.0327 C.3       1 <0>        -0.1248
     32 C24         2.3066  -10.9845   -0.5088 C.3       1 <0>        -0.0905
     33 C25         1.1348  -11.9506   -0.3234 C.3       1 <0>        -0.1394
     34 C26         2.6903  -10.9263   -1.9887 C.3       1 <0>        -0.1486
     35 N5          2.8810   -9.9221    2.1816 N.am      1 <0>        -0.6934
     36 C27         3.2670  -11.2021    2.3525 C.2       1 <0>         0.6544
     37 O3          2.5807  -12.1066    1.9198 O.2       1 <0>        -0.5558
     38 O4          4.4131  -11.4784    3.0028 O.3       1 <0>        -0.3557
     39 C28         4.7606  -12.8569    3.1475 C.3       1 <0>         0.1368
     40 C29         4.9091  -13.4934    1.7641 C.3       1 <0>        -0.1863
     41 C30         6.0840  -12.9722    3.9067 C.3       1 <0>        -0.1421
     42 C31         3.6609  -13.5811    3.9267 C.3       1 <0>        -0.1847
     43 O5         -3.3665   -2.2385    1.2937 O.3       1 <0>        -0.5424
     44 O6         -0.8897   -2.4172   -1.4003 O.3       1 <0>        -0.5486
     45 H3          1.0039    1.9031    0.0027 H         1 <0>         0.0551
     46 H4         -0.5459    1.8868   -0.8726 H         1 <0>         0.0530
     47 H5         -0.5289    1.8773    0.9072 H         1 <0>         0.0541
     48 H6          0.5123   -0.3556   -0.8948 H         1 <0>         0.0753
     49 H7          0.2319   -0.1594    2.1383 H         1 <0>         0.0543
     50 H8          0.7568   -1.6008    1.2356 H         1 <0>         0.0534
     51 H9          1.7647   -0.1336    1.2338 H         1 <0>         0.0552
     52 H10        -1.9156   -0.2570    0.9504 H         1 <0>         0.0805
     53 H11        -1.9862   -0.1019   -0.8214 H         1 <0>         0.0657
     54 H12        -2.4217   -4.3964   -1.0952 H         1 <0>         0.1103
     55 H13        -4.6166   -4.4659    1.0230 H         1 <0>         0.0700
     56 H14        -4.8941   -4.1698   -0.7101 H         1 <0>         0.0705
     57 H15        -3.5345   -6.6535    0.4265 H         1 <0>         0.0735
     58 H16        -4.5631   -5.9573   -2.3617 H         1 <0>         0.0457
     59 H17        -2.8523   -6.0402   -1.8772 H         1 <0>         0.0792
     60 H18        -3.5660   -8.1400   -2.9863 H         1 <0>         0.0537
     61 H19        -3.1364   -8.4309   -1.2836 H         1 <0>         0.0621
     62 H20        -5.9631   -8.0266   -2.3620 H         1 <0>         0.0576
     63 H21        -5.2498   -9.5838   -1.8777 H         1 <0>         0.0563
     64 H22        -6.6453   -8.6399   -0.0583 H         1 <0>         0.0569
     65 H23        -4.9346   -8.7229    0.4262 H         1 <0>         0.0566
     66 H24        -5.9316   -6.5401    1.0508 H         1 <0>         0.0554
     67 H25        -6.3613   -6.2492   -0.6519 H         1 <0>         0.0584
     68 H26        -1.8392   -4.2080    1.7601 H         1 <0>         0.3939
     69 H27         0.3018   -5.8216    2.0347 H         1 <0>         0.1199
     70 H28        -1.8127   -5.7082    3.3868 H         1 <0>         0.0984
     71 H29        -2.1488   -7.3979    2.9394 H         1 <0>         0.0794
     72 H30        -0.6806   -9.2208    4.2328 H         1 <0>         0.4110
     73 H31         0.3564   -5.2881    4.9992 H         1 <0>         0.1604
     74 H32         0.9697   -9.2728    6.1857 H         1 <0>         0.1987
     75 H33        -0.5190   -8.3064    0.7388 H         1 <0>         0.4112
     76 H34         0.8949  -10.3908    1.6973 H         1 <0>         0.1168
     77 H35         0.9916   -9.2787   -0.5535 H         1 <0>         0.0808
     78 H36         2.6996   -8.8828   -0.2463 H         1 <0>         0.0720
     79 H37         3.1595  -11.3318    0.0743 H         1 <0>         0.0771
     80 H38         0.8614  -11.9921    0.7310 H         1 <0>         0.0706
     81 H39         0.2818  -11.6034   -0.9065 H         1 <0>         0.0423
     82 H40         1.4262  -12.9447   -0.6625 H         1 <0>         0.0504
     83 H41         3.5251  -10.2380   -2.1208 H         1 <0>         0.0504
     84 H42         2.9818  -11.9203   -2.3279 H         1 <0>         0.0549
     85 H43         1.8373  -10.5790   -2.5718 H         1 <0>         0.0538
     86 H44         3.4288   -9.2000    2.5271 H         1 <0>         0.4153
     87 H45         5.6925  -12.9775    1.2090 H         1 <0>         0.0583
     88 H46         5.1742  -14.5449    1.8745 H         1 <0>         0.0694
     89 H47         3.9663  -13.4113    1.2233 H         1 <0>         0.0896
     90 H48         5.9782  -12.5188    4.8922 H         1 <0>         0.0670
     91 H49         6.3491  -14.0237    4.0170 H         1 <0>         0.0807
     92 H50         6.8675  -12.4563    3.3515 H         1 <0>         0.0666
     93 H51         2.7181  -13.4990    3.3859 H         1 <0>         0.0880
     94 H52         3.9261  -14.6326    4.0371 H         1 <0>         0.0693
     95 H53         3.5552  -13.1277    4.9123 H         1 <0>         0.0583
     96 H54        -2.8578   -2.5847    2.0396 H         1 <0>         0.3700
     97 H55        -1.3985   -2.0711   -2.1462 H         1 <0>         0.3752
@<TRIPOS>BOND
     1    1    2 1
     2    1   45 1
     3    1   46 1
     4    1   47 1
     5    2    3 1
     6    2    4 1
     7    2   48 1
     8    3   49 1
     9    3   50 1
    10    3   51 1
    11    4    5 1
    12    4   52 1
    13    4   53 1
    14    5    6 1
    15    5    7 1
    16    5   44 1
    17    7    8 1
    18    7    9 1
    19    7   43 1
    20    9   10 1
    21    9   17 1
    22    9   54 1
    23   10   11 1
    24   10   55 1
    25   10   56 1
    26   11   16 1
    27   11   12 1
    28   11   57 1
    29   12   13 1
    30   12   58 1
    31   12   59 1
    32   13   14 1
    33   13   60 1
    34   13   61 1
    35   14   15 1
    36   14   62 1
    37   14   63 1
    38   15   16 1
    39   15   64 1
    40   15   65 1
    41   16   66 1
    42   16   67 1
    43   17   18 am
    44   17   68 1
    45   18   19 2
    46   18   20 1
    47   20   21 1
    48   20   27 1
    49   20   69 1
    50   21   70 1
    51   21   71 1
    52   21   22 1
    53   22   23 2
    54   22   26 1
    55   23   24 1
    56   23   73 1
    57   24   25 2
    58   25   74 1
    59   25   26 1
    60   26   72 1
    61   27   28 am
    62   27   75 1
    63   28   29 2
    64   28   30 1
    65   30   31 1
    66   30   35 1
    67   30   76 1
    68   31   32 1
    69   31   77 1
    70   31   78 1
    71   32   33 1
    72   32   34 1
    73   32   79 1
    74   33   80 1
    75   33   81 1
    76   33   82 1
    77   34   83 1
    78   34   84 1
    79   34   85 1
    80   35   36 am
    81   35   86 1
    82   36   37 2
    83   36   38 1
    84   38   39 1
    85   39   40 1
    86   39   41 1
    87   39   42 1
    88   40   87 1
    89   40   88 1
    90   40   89 1
    91   41   90 1
    92   41   91 1
    93   41   92 1
    94   42   93 1
    95   42   94 1
    96   42   95 1
    97   43   96 1
    98   44   97 1
@<TRIPOS>MOLECULE
CHEMBL73216__11
   97    98     0     0     0
SMALL
USER_CHARGES

@<TRIPOS>ATOM
      1 C1          0.6514   -0.2560    1.3577 C.3       1 <0>        -0.1489
      2 C2          0.0379   -0.0876   -0.0338 C.3       1 <0>        -0.0945
      3 C3          0.8806   -0.8498   -1.0584 C.3       1 <0>        -0.1493
      4 C4         -1.3882   -0.6419   -0.0329 C.3       1 <0>        -0.1444
      5 C5         -2.0504   -0.3483   -1.3805 C.3       1 <0>         0.0764
      6 H1         -1.4402   -0.7627   -2.1831 H         1 <0>         0.1007
      7 C6         -3.4406   -0.9861   -1.4154 C.3       1 <0>         0.0676
      8 H2         -4.0508   -0.5716   -0.6129 H         1 <0>         0.1130
      9 C7         -4.1028   -0.6924   -2.7631 C.3       1 <0>         0.1180
     10 C8         -5.4931   -1.3302   -2.7980 C.3       1 <0>        -0.1216
     11 C9         -6.2040   -0.9331   -4.0933 C.3       1 <0>        -0.0805
     12 C10        -6.4511    0.5768   -4.0971 C.3       1 <0>        -0.1057
     13 C11        -7.1621    0.9739   -5.3924 C.3       1 <0>        -0.1107
     14 C12        -8.5001    0.2378   -5.4861 C.3       1 <0>        -0.1210
     15 C13        -8.2530   -1.2721   -5.4822 C.3       1 <0>        -0.1167
     16 C14        -7.5421   -1.6692   -4.1869 C.3       1 <0>        -0.1150
     17 N1         -3.2828   -1.2495   -3.8417 N.am      1 <0>        -0.7196
     18 C15        -3.3513   -0.7235   -5.0808 C.2       1 <0>         0.5143
     19 O1         -4.0919    0.2109   -5.3027 O.2       1 <0>        -0.5075
     20 C16        -2.5078   -1.2966   -6.1903 C.3       1 <0>         0.1437
     21 C17        -2.8656   -2.7701   -6.3940 C.3       1 <0>        -0.0393
     22 C18        -1.9392   -3.3752   -7.4171 C.2       1 <0>         0.0029
     23 C19        -1.1752   -4.4705   -7.2432 C.2       1 <0>        -0.0536
     24 N2         -0.4956   -4.6693   -8.4146 N.pl3     1 <0>        -0.5707
     25 C20        -0.8683   -3.6880   -9.2642 C.2       1 <0>         0.1904
     26 N3         -1.7356   -2.9207   -8.6625 N.2       1 <0>        -0.4501
     27 N4         -2.7619   -0.5566   -7.4289 N.am      1 <0>        -0.7069
     28 C21        -1.8232   -0.5174   -8.3952 C.2       1 <0>         0.5455
     29 O2         -0.7680   -1.0946   -8.2393 O.2       1 <0>        -0.5145
     30 C22        -2.0846    0.2438   -9.6693 C.3       1 <0>         0.1561
     31 C23        -2.3386    1.7163   -9.3407 C.3       1 <0>        -0.1263
     32 C24        -2.7263    2.4643  -10.6178 C.3       1 <0>        -0.0901
     33 C25        -4.0624    1.9291  -11.1366 C.3       1 <0>        -0.1393
     34 C26        -2.8587    3.9580  -10.3138 C.3       1 <0>        -0.1483
     35 N5         -0.9201    0.1341  -10.5513 N.am      1 <0>        -0.6876
     36 C27        -1.0686    0.2721  -11.8838 C.2       1 <0>         0.6529
     37 O3         -2.1683    0.4874  -12.3534 O.2       1 <0>        -0.5558
     38 O4          0.0017    0.1713  -12.6944 O.3       1 <0>        -0.3596
     39 C28        -0.2290    0.3282  -14.0959 C.3       1 <0>         0.1374
     40 C29        -0.8184    1.7145  -14.3636 C.3       1 <0>        -0.1863
     41 C30         1.0943    0.1823  -14.8500 C.3       1 <0>        -0.1413
     42 C31        -1.2097   -0.7441  -14.5746 C.3       1 <0>        -0.1846
     43 O5         -3.3209   -2.3994   -1.2414 O.3       1 <0>        -0.5431
     44 O6         -2.1701    1.0650   -1.5546 O.3       1 <0>        -0.5479
     45 H3          1.6949    0.0579    1.3351 H         1 <0>         0.0549
     46 H4          0.1030    0.3568    2.0731 H         1 <0>         0.0532
     47 H5          0.5932   -1.3027    1.6562 H         1 <0>         0.0537
     48 H6          0.0164    0.9702   -0.2958 H         1 <0>         0.0759
     49 H7          0.9021   -1.9076   -0.7964 H         1 <0>         0.0534
     50 H8          0.4435   -0.7298   -2.0497 H         1 <0>         0.0536
     51 H9          1.8966   -0.4549   -1.0590 H         1 <0>         0.0546
     52 H10        -1.3592   -1.7191    0.1307 H         1 <0>         0.0797
     53 H11        -1.9614   -0.1686    0.7644 H         1 <0>         0.0658
     54 H12        -4.1942    0.3856   -2.8958 H         1 <0>         0.1097
     55 H13        -5.3963   -2.4151   -2.7545 H         1 <0>         0.0692
     56 H14        -6.0738   -0.9827   -1.9435 H         1 <0>         0.0691
     57 H15        -5.5812   -1.2016   -4.9466 H         1 <0>         0.0758
     58 H16        -7.0740    0.8452   -3.2438 H         1 <0>         0.0444
     59 H17        -5.4979    1.1011   -4.0304 H         1 <0>         0.0791
     60 H18        -7.3381    2.0495   -5.3952 H         1 <0>         0.0531
     61 H19        -6.5392    0.7055   -6.2457 H         1 <0>         0.0641
     62 H20        -9.1230    0.5062   -4.6328 H         1 <0>         0.0565
     63 H21        -9.0066    0.5207   -6.4089 H         1 <0>         0.0562
     64 H22        -9.2062   -1.7964   -5.5489 H         1 <0>         0.0561
     65 H23        -7.6302   -1.5405   -6.3355 H         1 <0>         0.0586
     66 H24        -7.3660   -2.7449   -4.1842 H         1 <0>         0.0551
     67 H25        -8.1649   -1.4008   -3.3336 H         1 <0>         0.0571
     68 H26        -2.6905   -1.9969   -3.6642 H         1 <0>         0.3923
     69 H27        -1.4537   -1.2118   -5.9262 H         1 <0>         0.1101
     70 H28        -2.7613   -3.3033   -5.4490 H         1 <0>         0.0821
     71 H29        -3.8948   -2.8491   -6.7440 H         1 <0>         0.0817
     72 H30         0.1358   -5.3821   -8.5999 H         1 <0>         0.4172
     73 H31        -1.1108   -5.0755   -6.3509 H         1 <0>         0.1688
     74 H32        -0.5108   -3.5615  -10.2755 H         1 <0>         0.1957
     75 H33        -3.6059   -0.0950   -7.5536 H         1 <0>         0.4071
     76 H34        -2.9592   -0.1732  -10.1686 H         1 <0>         0.1183
     77 H35        -3.1485    1.7922   -8.6151 H         1 <0>         0.0796
     78 H36        -1.4335    2.1566   -8.9223 H         1 <0>         0.0683
     79 H37        -1.9563    2.3144  -11.3746 H         1 <0>         0.0759
     80 H38        -4.3386    2.4620  -12.0465 H         1 <0>         0.0480
     81 H39        -3.9681    0.8650  -11.3532 H         1 <0>         0.0732
     82 H40        -4.8324    2.0790  -10.3798 H         1 <0>         0.0417
     83 H41        -1.9068    4.3393   -9.9441 H         1 <0>         0.0491
     84 H42        -3.1349    4.4909  -11.2236 H         1 <0>         0.0532
     85 H43        -3.6287    4.1078   -9.5570 H         1 <0>         0.0533
     86 H44        -0.0421   -0.0378  -10.1764 H         1 <0>         0.4115
     87 H45        -0.1197    2.4785  -14.0226 H         1 <0>         0.0576
     88 H46        -0.9943    1.8343  -15.4327 H         1 <0>         0.0680
     89 H47        -1.7611    1.8185  -13.8264 H         1 <0>         0.0908
     90 H48         1.5142   -0.8053  -14.6593 H         1 <0>         0.0653
     91 H49         0.9183    0.3021  -15.9190 H         1 <0>         0.0795
     92 H50         1.7930    0.9462  -14.5090 H         1 <0>         0.0657
     93 H51        -2.1524   -0.6401  -14.0374 H         1 <0>         0.0898
     94 H52        -1.3857   -0.6243  -15.6437 H         1 <0>         0.0677
     95 H53        -0.7898   -1.7317  -14.3839 H         1 <0>         0.0570
     96 H54        -2.7896   -2.8357   -1.9214 H         1 <0>         0.3695
     97 H55        -2.7014    1.5014   -0.8745 H         1 <0>         0.3750
@<TRIPOS>BOND
     1    1    2 1
     2    1   45 1
     3    1   46 1
     4    1   47 1
     5    2    3 1
     6    2    4 1
     7    2   48 1
     8    3   49 1
     9    3   50 1
    10    3   51 1
    11    4    5 1
    12    4   52 1
    13    4   53 1
    14    5    6 1
    15    5    7 1
    16    5   44 1
    17    7    8 1
    18    7    9 1
    19    7   43 1
    20    9   10 1
    21    9   17 1
    22    9   54 1
    23   10   11 1
    24   10   55 1
    25   10   56 1
    26   11   16 1
    27   11   12 1
    28   11   57 1
    29   12   13 1
    30   12   58 1
    31   12   59 1
    32   13   14 1
    33   13   60 1
    34   13   61 1
    35   14   15 1
    36   14   62 1
    37   14   63 1
    38   15   16 1
    39   15   64 1
    40   15   65 1
    41   16   66 1
    42   16   67 1
    43   17   18 am
    44   17   68 1
    45   18   19 2
    46   18   20 1
    47   20   21 1
    48   20   27 1
    49   20   69 1
    50   21   70 1
    51   21   71 1
    52   21   22 1
    53   22   23 2
    54   22   26 1
    55   23   24 1
    56   23   73 1
    57   24   25 1
    58   24   72 1
    59   25   74 1
    60   25   26 2
    61   27   28 am
    62   27   75 1
    63   28   29 2
    64   28   30 1
    65   30   31 1
    66   30   35 1
    67   30   76 1
    68   31   32 1
    69   31   77 1
    70   31   78 1
    71   32   33 1
    72   32   34 1
    73   32   79 1
    74   33   80 1
    75   33   81 1
    76   33   82 1
    77   34   83 1
    78   34   84 1
    79   34   85 1
    80   35   36 am
    81   35   86 1
    82   36   37 2
    83   36   38 1
    84   38   39 1
    85   39   40 1
    86   39   41 1
    87   39   42 1
    88   40   87 1
    89   40   88 1
    90   40   89 1
    91   41   90 1
    92   41   91 1
    93   41   92 1
    94   42   93 1
    95   42   94 1
    96   42   95 1
    97   43   96 1
    98   44   97 1
@<TRIPOS>MOLECULE
CHEMBL73216__12
   98    99     0     0     0
SMALL
USER_CHARGES

@<TRIPOS>ATOM
      1 C1         -0.9242    3.6966    0.2580 C.3       1 <0>        -0.1501
      2 C2         -1.4590    2.6131    1.1966 C.3       1 <0>        -0.0947
      3 C3         -2.0140    1.4511    0.3703 C.3       1 <0>        -0.1507
      4 C4         -0.3248    2.1074    2.0904 C.3       1 <0>        -0.1430
      5 C5         -0.8796    1.0952    3.0947 C.3       1 <0>         0.0748
      6 H1         -1.4134    0.3089    2.5610 H         1 <0>         0.1083
      7 C6          0.2743    0.4798    3.8888 C.3       1 <0>         0.0669
      8 H2          0.8081    1.2662    4.4226 H         1 <0>         0.1029
      9 C7         -0.2805   -0.5323    4.8932 C.3       1 <0>         0.1115
     10 C8         -0.9212   -1.6996    4.1398 C.3       1 <0>        -0.1337
     11 C9         -1.6451   -2.6115    5.1325 C.3       1 <0>        -0.0789
     12 C10        -0.6197   -3.2887    6.0441 C.3       1 <0>        -0.1264
     13 C11        -1.3436   -4.2005    7.0368 C.3       1 <0>        -0.1203
     14 C12        -2.1282   -5.2675    6.2707 C.3       1 <0>        -0.1200
     15 C13        -3.1535   -4.5903    5.3591 C.3       1 <0>        -0.1221
     16 C14        -2.4296   -3.6785    4.3664 C.3       1 <0>        -0.1155
     17 N1          0.8094   -1.0333    5.7342 N.am      1 <0>        -0.7088
     18 C15         0.7602   -0.8671    7.0708 C.2       1 <0>         0.5141
     19 O1         -0.2289   -0.3914    7.5867 O.2       1 <0>        -0.5077
     20 C16         1.9343   -1.2725    7.9242 C.3       1 <0>         0.1289
     21 C17         2.2010   -2.7686    7.7473 C.3       1 <0>        -0.0763
     22 C18         3.4477   -3.1495    8.5034 C.2       1 <0>         0.0440
     23 C19         3.5142   -3.4702    9.8096 C.2       1 <0>         0.0436
     24 N2          4.8264   -3.7479   10.0830 N.pl3     1 <0>        -0.5002
     25 C20         5.5166   -3.5871    8.9334 C.cat     1 <0>         0.3129
     26 N3          4.6848   -3.2340    7.9919 N.pl3     1 <0>        -0.4671
     27 N4          1.6352   -0.9927    9.3308 N.am      1 <0>        -0.7049
     28 C21         2.6399   -0.7853   10.2050 C.2       1 <0>         0.5212
     29 O2          3.7914   -0.8304    9.8272 O.2       1 <0>        -0.5397
     30 C22         2.3322   -0.4975   11.6519 C.3       1 <0>         0.1462
     31 C23         1.4880    0.7746   11.7506 C.3       1 <0>        -0.1279
     32 C24         1.0709    0.9984   13.2056 C.3       1 <0>        -0.0904
     33 C25         0.3335    2.3336   13.3251 C.3       1 <0>        -0.1512
     34 C26         0.1467   -0.1364   13.6515 C.3       1 <0>        -0.1416
     35 N5          3.5841   -0.3112   12.3897 N.am      1 <0>        -0.6999
     36 C27         3.6250   -0.5418   13.7169 C.2       1 <0>         0.6509
     37 O3          2.6234   -0.9043   14.3017 O.2       1 <0>        -0.5466
     38 O4          4.7755   -0.3706   14.3949 O.3       1 <0>        -0.3568
     39 C28         4.7462   -0.6332   15.7992 C.3       1 <0>         0.1373
     40 C29         4.3415   -2.0893   16.0375 C.3       1 <0>        -0.1845
     41 C30         6.1343   -0.3859   16.3934 C.3       1 <0>        -0.1431
     42 C31         3.7315    0.2946   16.4705 C.3       1 <0>        -0.1886
     43 O5          1.1704   -0.1805    2.9927 O.3       1 <0>        -0.5515
     44 O6         -1.7757    1.7556    3.9908 O.3       1 <0>        -0.5490
     45 H3         -0.0741    3.3057   -0.3012 H         1 <0>         0.0540
     46 H4         -1.7094    3.9956   -0.4365 H         1 <0>         0.0574
     47 H5         -0.6082    4.5603    0.8429 H         1 <0>         0.0535
     48 H6         -2.2526    3.0293    1.8171 H         1 <0>         0.0766
     49 H7         -1.2204    1.0349   -0.2502 H         1 <0>         0.0539
     50 H8         -2.3950    0.6792    1.0390 H         1 <0>         0.0534
     51 H9         -2.8220    1.8113   -0.2664 H         1 <0>         0.0573
     52 H10         0.4368    1.6285    1.4750 H         1 <0>         0.0804
     53 H11         0.1168    2.9471    2.6270 H         1 <0>         0.0650
     54 H12        -1.0301   -0.0490    5.5197 H         1 <0>         0.1239
     55 H13        -1.6360   -1.3142    3.4126 H         1 <0>         0.0839
     56 H14        -0.1473   -2.2671    3.6229 H         1 <0>         0.0694
     57 H15        -2.3322   -2.0185    5.7361 H         1 <0>         0.0749
     58 H16         0.0674   -3.8816    5.4405 H         1 <0>         0.0560
     59 H17        -0.0608   -2.5285    6.5899 H         1 <0>         0.0694
     60 H18        -0.6131   -4.6830    7.6863 H         1 <0>         0.0532
     61 H19        -2.0307   -3.6076    7.6404 H         1 <0>         0.0634
     62 H20        -1.4410   -5.8604    5.6672 H         1 <0>         0.0593
     63 H21        -2.6438   -5.9171    6.9780 H         1 <0>         0.0612
     64 H22        -3.7124   -5.3504    4.8133 H         1 <0>         0.0636
     65 H23        -3.8407   -3.9973    5.9627 H         1 <0>         0.0628
     66 H24        -3.1601   -3.1960    3.7170 H         1 <0>         0.0637
     67 H25        -1.7425   -4.2714    3.7628 H         1 <0>         0.0607
     68 H26         1.5665   -1.4846    5.3291 H         1 <0>         0.4026
     69 H27         2.8160   -0.7079    7.6210 H         1 <0>         0.1247
     70 H28         1.3544   -3.3367    8.1330 H         1 <0>         0.1247
     71 H29         2.3358   -2.9910    6.6888 H         1 <0>         0.1121
     72 H30         5.1922   -4.0111   10.9419 H         1 <0>         0.4655
     73 H31         2.6905   -3.5019   10.5075 H         1 <0>         0.2132
     74 H32         6.5801   -3.7309    8.8124 H         1 <0>         0.2643
     75 H33         0.7142   -0.9567    9.6330 H         1 <0>         0.4223
     76 H34         1.7798   -1.3343   12.0793 H         1 <0>         0.1254
     77 H35         2.0732    1.6268   11.4052 H         1 <0>         0.0743
     78 H36         0.5983    0.6693   11.1297 H         1 <0>         0.0833
     79 H37         1.9577    1.0151   13.8392 H         1 <0>         0.0772
     80 H38        -0.5532    2.3170   12.6915 H         1 <0>         0.0558
     81 H39         0.0364    2.4931   14.3617 H         1 <0>         0.0585
     82 H40         0.9920    3.1421   13.0074 H         1 <0>         0.0514
     83 H41         0.6720   -1.0876   13.5663 H         1 <0>         0.0687
     84 H42        -0.1504    0.0231   14.6880 H         1 <0>         0.0544
     85 H43        -0.7401   -0.1530   13.0178 H         1 <0>         0.0450
     86 H44         4.3837   -0.0218   11.9229 H         1 <0>         0.4132
     87 H45         5.0644   -2.7502   15.5593 H         1 <0>         0.0556
     88 H46         4.3191   -2.2896   17.1087 H         1 <0>         0.0736
     89 H47         3.3526   -2.2655   15.6142 H         1 <0>         0.0876
     90 H48         6.4226    0.6515   16.2236 H         1 <0>         0.0683
     91 H49         6.1120   -0.5862   17.4646 H         1 <0>         0.0844
     92 H50         6.8572   -1.0469   15.9151 H         1 <0>         0.0654
     93 H51         2.7426    0.1184   16.0472 H         1 <0>         0.0895
     94 H52         3.7092    0.0943   17.5417 H         1 <0>         0.0733
     95 H53         4.0198    1.3319   16.3008 H         1 <0>         0.0604
     96 H54         0.7624   -0.8938    2.4831 H         1 <0>         0.3771
     97 H55        -1.3677    2.4689    4.5004 H         1 <0>         0.3767
     98 H56         4.9237   -3.0585    7.0683 H         1 <0>         0.4624
@<TRIPOS>BOND
     1    1    2 1
     2    1   45 1
     3    1   46 1
     4    1   47 1
     5    2    3 1
     6    2    4 1
     7    2   48 1
     8    3   49 1
     9    3   50 1
    10    3   51 1
    11    4    5 1
    12    4   52 1
    13    4   53 1
    14    5    6 1
    15    5    7 1
    16    5   44 1
    17    7    8 1
    18    7    9 1
    19    7   43 1
    20    9   10 1
    21    9   17 1
    22    9   54 1
    23   10   11 1
    24   10   55 1
    25   10   56 1
    26   11   16 1
    27   11   12 1
    28   11   57 1
    29   12   13 1
    30   12   58 1
    31   12   59 1
    32   13   14 1
    33   13   60 1
    34   13   61 1
    35   14   15 1
    36   14   62 1
    37   14   63 1
    38   15   16 1
    39   15   64 1
    40   15   65 1
    41   16   66 1
    42   16   67 1
    43   17   18 am
    44   17   68 1
    45   18   19 2
    46   18   20 1
    47   20   21 1
    48   20   27 1
    49   20   69 1
    50   21   70 1
    51   21   71 1
    52   21   22 1
    53   22   23 2
    54   22   26 1
    55   23   24 1
    56   23   73 1
    57   24   25 1
    58   24   72 1
    59   25   74 1
    60   25   26 2
    61   26   98 1
    62   27   28 am
    63   27   75 1
    64   28   29 2
    65   28   30 1
    66   30   31 1
    67   30   35 1
    68   30   76 1
    69   31   32 1
    70   31   77 1
    71   31   78 1
    72   32   33 1
    73   32   34 1
    74   32   79 1
    75   33   80 1
    76   33   81 1
    77   33   82 1
    78   34   83 1
    79   34   84 1
    80   34   85 1
    81   35   36 am
    82   35   86 1
    83   36   37 2
    84   36   38 1
    85   38   39 1
    86   39   40 1
    87   39   41 1
    88   39   42 1
    89   40   87 1
    90   40   88 1
    91   40   89 1
    92   41   90 1
    93   41   91 1
    94   41   92 1
    95   42   93 1
    96   42   94 1
    97   42   95 1
    98   43   96 1
    99   44   97 1
@<TRIPOS>MOLECULE
CHEMBL73216__13
   97    98     0     0     0
SMALL
USER_CHARGES

@<TRIPOS>ATOM
      1 C1          2.8422   -3.4591    4.8038 C.3       1 <0>        -0.1490
      2 C2          1.7993   -4.5555    5.0305 C.3       1 <0>        -0.0946
      3 C3          1.1425   -4.3598    6.3984 C.3       1 <0>        -0.1499
      4 C4          0.7323   -4.4784    3.9366 C.3       1 <0>        -0.1434
      5 C5         -0.2406   -5.6493    4.0898 C.3       1 <0>         0.0762
      6 H1         -0.6521   -5.6501    5.0991 H         1 <0>         0.1066
      7 C6         -1.3770   -5.5040    3.0758 C.3       1 <0>         0.0667
      8 H2         -0.9655   -5.5032    2.0664 H         1 <0>         0.1033
      9 C7         -2.3499   -6.6749    3.2289 C.3       1 <0>         0.1122
     10 C8         -3.0211   -6.6040    4.6020 C.3       1 <0>        -0.1334
     11 C9         -3.8602   -7.8638    4.8251 C.3       1 <0>        -0.0791
     12 C10        -5.1369   -7.7815    3.9859 C.3       1 <0>        -0.1296
     13 C11        -5.9760   -9.0412    4.2090 C.3       1 <0>        -0.1223
     14 C12        -6.3453   -9.1524    5.6896 C.3       1 <0>        -0.1187
     15 C13        -5.0686   -9.2347    6.5289 C.3       1 <0>        -0.1201
     16 C14        -4.2295   -7.9750    6.3057 C.3       1 <0>        -0.1140
     17 N1         -3.3716   -6.6010    2.1816 N.am      1 <0>        -0.7124
     18 C15        -3.5603   -7.6443    1.3495 C.2       1 <0>         0.5157
     19 O1         -2.8400   -8.6172    1.4238 O.2       1 <0>        -0.5200
     20 C16        -4.6663   -7.6020    0.3267 C.3       1 <0>         0.1309
     21 C17        -6.0125   -7.4478    1.0373 C.3       1 <0>        -0.0556
     22 C18        -7.1053   -7.2822    0.0129 C.2       1 <0>        -0.0198
     23 C19        -7.7605   -8.2685   -0.6285 C.2       1 <0>        -0.0048
     24 N2         -8.6541   -7.7044   -1.4544 N.2       1 <0>        -0.4816
     25 C20        -8.5775   -6.4059   -1.3492 C.2       1 <0>         0.1918
     26 N3         -7.6267   -6.1005   -0.4401 N.pl3     1 <0>        -0.5596
     27 N4         -4.6628   -8.8453   -0.4482 N.am      1 <0>        -0.7103
     28 C21        -5.1764   -8.8643   -1.6941 C.2       1 <0>         0.5252
     29 O2         -5.5334   -7.8307   -2.2187 O.2       1 <0>        -0.5139
     30 C22        -5.3070  -10.1698   -2.4354 C.3       1 <0>         0.1493
     31 C23        -3.9749  -10.5109   -3.1062 C.3       1 <0>        -0.1246
     32 C24        -2.8819  -10.6237   -2.0415 C.3       1 <0>        -0.1046
     33 C25        -3.2001  -11.7915   -1.1056 C.3       1 <0>        -0.1530
     34 C26        -1.5323  -10.8670   -2.7199 C.3       1 <0>        -0.1439
     35 N5         -6.3510  -10.0494   -3.4561 N.am      1 <0>        -0.6918
     36 C27        -7.0469  -11.1379   -3.8399 C.2       1 <0>         0.6596
     37 O3         -6.8728  -12.2002   -3.2763 O.2       1 <0>        -0.5671
     38 O4         -7.9350  -11.0483   -4.8478 O.3       1 <0>        -0.3533
     39 C28        -8.6372  -12.2415   -5.2019 C.3       1 <0>         0.1358
     40 C29        -9.4340  -12.7414   -3.9952 C.3       1 <0>        -0.1854
     41 C30        -9.5945  -11.9458   -6.3581 C.3       1 <0>        -0.1410
     42 C31        -7.6349  -13.3147   -5.6314 C.3       1 <0>        -0.1859
     43 O5         -2.0693   -4.2758    3.3089 O.3       1 <0>        -0.5507
     44 O6          0.4517   -6.8774    3.8566 O.3       1 <0>        -0.5497
     45 H3          3.6023   -3.5141    5.5831 H         1 <0>         0.0553
     46 H4          3.3101   -3.5986    3.8293 H         1 <0>         0.0532
     47 H5          2.3570   -2.4837    4.8377 H         1 <0>         0.0537
     48 H6          2.2845   -5.5310    4.9966 H         1 <0>         0.0764
     49 H7          0.6574   -3.3843    6.4322 H         1 <0>         0.0536
     50 H8          0.3996   -5.1408    6.5598 H         1 <0>         0.0543
     51 H9          1.9027   -4.4147    7.1776 H         1 <0>         0.0552
     52 H10         0.1871   -3.5389    4.0265 H         1 <0>         0.0800
     53 H11         1.2105   -4.5289    2.9584 H         1 <0>         0.0650
     54 H12        -1.8047   -7.6144    3.1390 H         1 <0>         0.1217
     55 H13        -2.2574   -6.5343    5.3766 H         1 <0>         0.0799
     56 H14        -3.6652   -5.7258    4.6467 H         1 <0>         0.0685
     57 H15        -3.2855   -8.7407    4.5272 H         1 <0>         0.0735
     58 H16        -5.7116   -6.9046    4.2839 H         1 <0>         0.0579
     59 H17        -4.8738   -7.7023    2.9311 H         1 <0>         0.0745
     60 H18        -6.8855   -8.9826    3.6111 H         1 <0>         0.0597
     61 H19        -5.4012   -9.9181    3.9111 H         1 <0>         0.0616
     62 H20        -6.9200   -8.2755    5.9876 H         1 <0>         0.0594
     63 H21        -6.9431  -10.0499    5.8486 H         1 <0>         0.0600
     64 H22        -5.3317   -9.3140    7.5837 H         1 <0>         0.0605
     65 H23        -4.4938  -10.1116    6.2309 H         1 <0>         0.0614
     66 H24        -3.3200   -8.0336    6.9036 H         1 <0>         0.0608
     67 H25        -4.8043   -7.0981    6.6037 H         1 <0>         0.0601
     68 H26        -3.9123   -5.8013    2.0870 H         1 <0>         0.4040
     69 H27        -4.5099   -6.7561   -0.3428 H         1 <0>         0.1165
     70 H28        -6.2096   -8.3353    1.6387 H         1 <0>         0.1010
     71 H29        -5.9840   -6.5702    1.6832 H         1 <0>         0.0861
     72 H30        -7.3617   -5.2100   -0.1614 H         1 <0>         0.4154
     73 H31        -7.5953   -9.3281   -0.5003 H         1 <0>         0.1523
     74 H32        -9.1776   -5.6936   -1.8960 H         1 <0>         0.2033
     75 H33        -4.2908   -9.6548   -0.0645 H         1 <0>         0.4133
     76 H34        -5.5738  -10.9606   -1.7343 H         1 <0>         0.1170
     77 H35        -4.0667  -11.4599   -3.6346 H         1 <0>         0.0843
     78 H36        -3.7127   -9.7247   -3.8142 H         1 <0>         0.0738
     79 H37        -2.8380   -9.6988   -1.4664 H         1 <0>         0.0782
     80 H38        -4.1925  -11.6532   -0.6764 H         1 <0>         0.0516
     81 H39        -3.1743  -12.7250   -1.6677 H         1 <0>         0.0617
     82 H40        -2.4604  -11.8283   -0.3059 H         1 <0>         0.0626
     83 H41        -1.3056  -10.0350   -3.3866 H         1 <0>         0.0533
     84 H42        -0.7536  -10.9473   -1.9614 H         1 <0>         0.0587
     85 H43        -1.5761  -11.7919   -3.2949 H         1 <0>         0.0566
     86 H44        -6.5414   -9.1863   -3.8557 H         1 <0>         0.4160
     87 H45       -10.1480  -11.9768   -3.6892 H         1 <0>         0.0608
     88 H46        -9.9696  -13.6515   -4.2652 H         1 <0>         0.0687
     89 H47        -8.7519  -12.9520   -3.1714 H         1 <0>         0.0873
     90 H48        -9.0269  -11.5896   -7.2178 H         1 <0>         0.0659
     91 H49       -10.1301  -12.8559   -6.6282 H         1 <0>         0.0801
     92 H50       -10.3086  -11.1812   -6.0522 H         1 <0>         0.0676
     93 H51        -6.9528  -13.5253   -4.8076 H         1 <0>         0.0878
     94 H52        -8.1705  -14.2248   -5.9014 H         1 <0>         0.0696
     95 H53        -7.0672  -12.9585   -6.4910 H         1 <0>         0.0584
     96 H54        -2.4623   -4.2069    4.1898 H         1 <0>         0.3752
     97 H55         0.8447   -6.9464    2.9758 H         1 <0>         0.3767
@<TRIPOS>BOND
     1    1    2 1
     2    1   45 1
     3    1   46 1
     4    1   47 1
     5    2    3 1
     6    2    4 1
     7    2   48 1
     8    3   49 1
     9    3   50 1
    10    3   51 1
    11    4    5 1
    12    4   52 1
    13    4   53 1
    14    5    6 1
    15    5    7 1
    16    5   44 1
    17    7    8 1
    18    7    9 1
    19    7   43 1
    20    9   10 1
    21    9   17 1
    22    9   54 1
    23   10   11 1
    24   10   55 1
    25   10   56 1
    26   11   16 1
    27   11   12 1
    28   11   57 1
    29   12   13 1
    30   12   58 1
    31   12   59 1
    32   13   14 1
    33   13   60 1
    34   13   61 1
    35   14   15 1
    36   14   62 1
    37   14   63 1
    38   15   16 1
    39   15   64 1
    40   15   65 1
    41   16   66 1
    42   16   67 1
    43   17   18 am
    44   17   68 1
    45   18   19 2
    46   18   20 1
    47   20   21 1
    48   20   27 1
    49   20   69 1
    50   21   70 1
    51   21   71 1
    52   21   22 1
    53   22   23 2
    54   22   26 1
    55   23   24 1
    56   23   73 1
    57   24   25 2
    58   25   74 1
    59   25   26 1
    60   26   72 1
    61   27   28 am
    62   27   75 1
    63   28   29 2
    64   28   30 1
    65   30   31 1
    66   30   35 1
    67   30   76 1
    68   31   32 1
    69   31   77 1
    70   31   78 1
    71   32   33 1
    72   32   34 1
    73   32   79 1
    74   33   80 1
    75   33   81 1
    76   33   82 1
    77   34   83 1
    78   34   84 1
    79   34   85 1
    80   35   36 am
    81   35   86 1
    82   36   37 2
    83   36   38 1
    84   38   39 1
    85   39   40 1
    86   39   41 1
    87   39   42 1
    88   40   87 1
    89   40   88 1
    90   40   89 1
    91   41   90 1
    92   41   91 1
    93   41   92 1
    94   42   93 1
    95   42   94 1
    96   42   95 1
    97   43   96 1
    98   44   97 1
@<TRIPOS>MOLECULE
CHEMBL73216__14
   97    98     0     0     0
SMALL
USER_CHARGES

@<TRIPOS>ATOM
      1 C1          0.6300    0.8074   -1.7745 C.3       1 <0>        -0.1490
      2 C2          0.0308   -0.1494   -2.8072 C.3       1 <0>        -0.0947
      3 C3          0.6688   -1.5314   -2.6525 C.3       1 <0>        -0.1497
      4 C4         -1.4794   -0.2573   -2.5867 C.3       1 <0>        -0.1434
      5 C5         -2.1020   -1.0815   -3.7153 C.3       1 <0>         0.0768
      6 H1         -1.6114   -2.0534   -3.7688 H         1 <0>         0.1061
      7 C6         -3.5942   -1.2778   -3.4402 C.3       1 <0>         0.0667
      8 H2         -4.0847   -0.3059   -3.3867 H         1 <0>         0.1040
      9 C7         -4.2168   -2.1020   -4.5688 C.3       1 <0>         0.1142
     10 C8         -3.6158   -3.5091   -4.5642 C.3       1 <0>        -0.1333
     11 C9         -4.1507   -4.2960   -5.7623 C.3       1 <0>        -0.0777
     12 C10        -5.5891   -4.7360   -5.4824 C.3       1 <0>        -0.1255
     13 C11        -6.1241   -5.5230   -6.6804 C.3       1 <0>        -0.1196
     14 C12        -5.2493   -6.7567   -6.9119 C.3       1 <0>        -0.1188
     15 C13        -3.8109   -6.3168   -7.1919 C.3       1 <0>        -0.1194
     16 C14        -3.2760   -5.5298   -5.9938 C.3       1 <0>        -0.1143
     17 N1         -5.6654   -2.1891   -4.3681 N.am      1 <0>        -0.7139
     18 C15        -6.5049   -1.8940   -5.3804 C.2       1 <0>         0.5170
     19 O1         -6.0637   -1.6617   -6.4860 O.2       1 <0>        -0.5255
     20 C16        -7.9917   -1.8528   -5.1384 C.3       1 <0>         0.1337
     21 C17        -8.4674   -3.2229   -4.6512 C.3       1 <0>        -0.0412
     22 C18        -9.9292   -3.1488   -4.2924 C.2       1 <0>         0.0055
     23 C19       -10.9053   -3.9367   -4.7824 C.2       1 <0>        -0.0559
     24 N2        -12.0732   -3.5325   -4.1941 N.pl3     1 <0>        -0.5696
     25 C20       -11.7701   -2.5109   -3.3645 C.2       1 <0>         0.1933
     26 N3        -10.4853   -2.2903   -3.4248 N.2       1 <0>        -0.4534
     27 N4         -8.6802   -1.5121   -6.3859 N.am      1 <0>        -0.7087
     28 C21        -9.8964   -0.9325   -6.3478 C.2       1 <0>         0.5130
     29 O2        -10.3779   -0.6026   -5.2847 O.2       1 <0>        -0.4985
     30 C22       -10.6581   -0.6945   -7.6262 C.3       1 <0>         0.1493
     31 C23       -10.0928    0.5381   -8.3347 C.3       1 <0>        -0.1233
     32 C24        -8.6139    0.3098   -8.6535 C.3       1 <0>        -0.1086
     33 C25        -8.4814   -0.8189   -9.6779 C.3       1 <0>        -0.1520
     34 C26        -8.0120    1.5936   -9.2283 C.3       1 <0>        -0.1428
     35 N5        -12.0732   -0.4745   -7.3178 N.am      1 <0>        -0.6937
     36 C27       -13.0191   -0.8108   -8.2170 C.2       1 <0>         0.6545
     37 O3        -12.6959   -1.2111   -9.3179 O.2       1 <0>        -0.5634
     38 O4        -14.3221   -0.7033   -7.8956 O.3       1 <0>        -0.3568
     39 C28       -15.2704   -1.0771   -8.8972 C.3       1 <0>         0.1352
     40 C29       -15.0602   -2.5444   -9.2762 C.3       1 <0>        -0.1851
     41 C30       -16.6879   -0.8889   -8.3530 C.3       1 <0>        -0.1408
     42 C31       -15.0783   -0.1981  -10.1347 C.3       1 <0>        -0.1865
     43 O5         -3.7632   -1.9656   -2.1990 O.3       1 <0>        -0.5494
     44 O6         -1.9330   -0.3937   -4.9565 O.3       1 <0>        -0.5501
     45 H3          1.7153    0.8169   -1.8747 H         1 <0>         0.0550
     46 H4          0.2408    1.8118   -1.9410 H         1 <0>         0.0530
     47 H5          0.3606    0.4750   -0.7719 H         1 <0>         0.0537
     48 H6          0.2253    0.2304   -3.8102 H         1 <0>         0.0765
     49 H7          0.4743   -1.9112   -1.6495 H         1 <0>         0.0536
     50 H8          0.2420   -2.2130   -3.3882 H         1 <0>         0.0542
     51 H9          1.7447   -1.4546   -2.8096 H         1 <0>         0.0546
     52 H10        -1.6731   -0.7448   -1.6312 H         1 <0>         0.0804
     53 H11        -1.9179    0.7406   -2.5809 H         1 <0>         0.0652
     54 H12        -4.0107   -1.6221   -5.5255 H         1 <0>         0.1180
     55 H13        -2.5299   -3.4405   -4.6301 H         1 <0>         0.0773
     56 H14        -3.8924   -4.0193   -3.6416 H         1 <0>         0.0676
     57 H15        -4.1303   -3.6643   -6.6504 H         1 <0>         0.0758
     58 H16        -5.6095   -5.3677   -4.5943 H         1 <0>         0.0564
     59 H17        -6.2123   -3.8571   -5.3174 H         1 <0>         0.0744
     60 H18        -7.1488   -5.8364   -6.4810 H         1 <0>         0.0566
     61 H19        -6.1037   -4.8913   -7.5685 H         1 <0>         0.0612
     62 H20        -5.2697   -7.3884   -6.0239 H         1 <0>         0.0591
     63 H21        -5.6304   -7.3174   -7.7655 H         1 <0>         0.0581
     64 H22        -3.1877   -7.1957   -7.3568 H         1 <0>         0.0592
     65 H23        -3.7905   -5.6851   -8.0799 H         1 <0>         0.0609
     66 H24        -2.2512   -5.2163   -6.1932 H         1 <0>         0.0597
     67 H25        -3.2964   -6.1615   -5.1057 H         1 <0>         0.0594
     68 H26        -6.0203   -2.4591   -3.5067 H         1 <0>         0.4066
     69 H27        -8.2161   -1.1003   -4.3824 H         1 <0>         0.1268
     70 H28        -8.3242   -3.9595   -5.4418 H         1 <0>         0.0829
     71 H29        -7.8922   -3.5160   -3.7730 H         1 <0>         0.0864
     72 H30       -12.9542   -3.9095   -4.3449 H         1 <0>         0.4169
     73 H31       -10.7889   -4.7340   -5.5015 H         1 <0>         0.1661
     74 H32       -12.4737   -1.9691   -2.7500 H         1 <0>         0.2008
     75 H33        -8.2607   -1.7035   -7.2393 H         1 <0>         0.4105
     76 H34       -10.5587   -1.5643   -8.2756 H         1 <0>         0.1132
     77 H35       -10.6420    0.7087   -9.2606 H         1 <0>         0.0838
     78 H36       -10.1946    1.4084   -7.6863 H         1 <0>         0.0729
     79 H37        -8.0836    0.0366   -7.7413 H         1 <0>         0.0843
     80 H38        -7.4262   -1.0168   -9.8660 H         1 <0>         0.0623
     81 H39        -8.9565   -1.7197   -9.2895 H         1 <0>         0.0504
     82 H40        -8.9673   -0.5242  -10.6081 H         1 <0>         0.0603
     83 H41        -8.1064    2.3977   -8.4985 H         1 <0>         0.0534
     84 H42        -6.9584    1.4309   -9.4555 H         1 <0>         0.0591
     85 H43        -8.5424    1.8668  -10.1406 H         1 <0>         0.0551
     86 H44       -12.3294   -0.0867   -6.4664 H         1 <0>         0.4145
     87 H45       -15.1970   -3.1706   -8.3945 H         1 <0>         0.0569
     88 H46       -15.7835   -2.8295  -10.0401 H         1 <0>         0.0707
     89 H47       -14.0503   -2.6785   -9.6639 H         1 <0>         0.0876
     90 H48       -16.8376    0.1565   -8.0829 H         1 <0>         0.0673
     91 H49       -17.4112   -1.1740   -9.1169 H         1 <0>         0.0813
     92 H50       -16.8247   -1.5151   -7.4713 H         1 <0>         0.0656
     93 H51       -14.0685   -0.3322  -10.5224 H         1 <0>         0.0882
     94 H52       -15.8016   -0.4832  -10.8986 H         1 <0>         0.0705
     95 H53       -15.2281    0.8472   -9.8647 H         1 <0>         0.0597
     96 H54        -3.3511   -2.8400   -2.1746 H         1 <0>         0.3752
     97 H55        -2.3451    0.4807   -4.9809 H         1 <0>         0.3761
@<TRIPOS>BOND
     1    1    2 1
     2    1   45 1
     3    1   46 1
     4    1   47 1
     5    2    3 1
     6    2    4 1
     7    2   48 1
     8    3   49 1
     9    3   50 1
    10    3   51 1
    11    4    5 1
    12    4   52 1
    13    4   53 1
    14    5    6 1
    15    5    7 1
    16    5   44 1
    17    7    8 1
    18    7    9 1
    19    7   43 1
    20    9   10 1
    21    9   17 1
    22    9   54 1
    23   10   11 1
    24   10   55 1
    25   10   56 1
    26   11   16 1
    27   11   12 1
    28   11   57 1
    29   12   13 1
    30   12   58 1
    31   12   59 1
    32   13   14 1
    33   13   60 1
    34   13   61 1
    35   14   15 1
    36   14   62 1
    37   14   63 1
    38   15   16 1
    39   15   64 1
    40   15   65 1
    41   16   66 1
    42   16   67 1
    43   17   18 am
    44   17   68 1
    45   18   19 2
    46   18   20 1
    47   20   21 1
    48   20   27 1
    49   20   69 1
    50   21   70 1
    51   21   71 1
    52   21   22 1
    53   22   23 2
    54   22   26 1
    55   23   24 1
    56   23   73 1
    57   24   25 1
    58   24   72 1
    59   25   74 1
    60   25   26 2
    61   27   28 am
    62   27   75 1
    63   28   29 2
    64   28   30 1
    65   30   31 1
    66   30   35 1
    67   30   76 1
    68   31   32 1
    69   31   77 1
    70   31   78 1
    71   32   33 1
    72   32   34 1
    73   32   79 1
    74   33   80 1
    75   33   81 1
    76   33   82 1
    77   34   83 1
    78   34   84 1
    79   34   85 1
    80   35   36 am
    81   35   86 1
    82   36   37 2
    83   36   38 1
    84   38   39 1
    85   39   40 1
    86   39   41 1
    87   39   42 1
    88   40   87 1
    89   40   88 1
    90   40   89 1
    91   41   90 1
    92   41   91 1
    93   41   92 1
    94   42   93 1
    95   42   94 1
    96   42   95 1
    97   43   96 1
    98   44   97 1
@<TRIPOS>MOLECULE
CHEMBL73216__15
   98    99     0     0     0
SMALL
USER_CHARGES

@<TRIPOS>ATOM
      1 C1          2.1841    2.6288   -1.8568 C.3       1 <0>        -0.1500
      2 C2          1.1596    1.9909   -0.9164 C.3       1 <0>        -0.0952
      3 C3          0.4185    0.8729   -1.6524 C.3       1 <0>        -0.1501
      4 C4          1.8788    1.4097    0.3026 C.3       1 <0>        -0.1429
      5 C5          0.8453    0.9327    1.3249 C.3       1 <0>         0.0758
      6 H1          0.1645    0.2258    0.8506 H         1 <0>         0.1076
      7 C6          1.5603    0.2478    2.4914 C.3       1 <0>         0.0670
      8 H2          2.2410    0.9548    2.9657 H         1 <0>         0.1038
      9 C7          0.5268   -0.2292    3.5138 C.3       1 <0>         0.1120
     10 C8         -0.3506   -1.3131    2.8843 C.3       1 <0>        -0.1343
     11 C9         -1.4702   -1.6911    3.8561 C.3       1 <0>        -0.0788
     12 C10        -0.8888   -2.5093    5.0108 C.3       1 <0>        -0.1248
     13 C11        -2.0084   -2.8872    5.9826 C.3       1 <0>        -0.1203
     14 C12        -3.0621   -3.7187    5.2482 C.3       1 <0>        -0.1197
     15 C13        -3.6435   -2.9005    4.0935 C.3       1 <0>        -0.1218
     16 C14        -2.5239   -2.5226    3.1217 C.3       1 <0>        -0.1158
     17 N1          1.2154   -0.7774    4.6849 N.am      1 <0>        -0.7093
     18 C15         0.9146   -0.3228    5.9175 C.2       1 <0>         0.5143
     19 O1          0.0098    0.4708    6.0671 O.2       1 <0>        -0.5063
     20 C16         1.7025   -0.8008    7.1099 C.3       1 <0>         0.1253
     21 C17         1.5694   -2.3199    7.2335 C.3       1 <0>        -0.0788
     22 C18         2.4540   -2.8125    8.3498 C.2       1 <0>         0.0453
     23 C19         2.1306   -2.8534    9.6564 C.2       1 <0>         0.0273
     24 N2          3.2142   -3.3666   10.3167 N.pl3     1 <0>        -0.5015
     25 C20         4.1627   -3.6217    9.3899 C.cat     1 <0>         0.3158
     26 N3          3.6992   -3.2925    8.2153 N.pl3     1 <0>        -0.4668
     27 N4          1.1849   -0.1648    8.3240 N.am      1 <0>        -0.7047
     28 C21         1.9828   -0.0175    9.4002 C.2       1 <0>         0.5239
     29 O2          3.1470   -0.3524    9.3423 O.2       1 <0>        -0.5374
     30 C22         1.4283    0.5632   10.6754 C.3       1 <0>         0.1445
     31 C23         0.6548   -0.5172   11.4339 C.3       1 <0>        -0.1285
     32 C24        -0.6041   -0.8897   10.6482 C.3       1 <0>        -0.1091
     33 C25        -1.2808   -2.0922   11.3092 C.3       1 <0>        -0.1511
     34 C26        -1.5694    0.2973   10.6390 C.3       1 <0>        -0.1559
     35 N5          2.5296    1.0514   11.5090 N.am      1 <0>        -0.7028
     36 C27         2.2968    1.9814   12.4563 C.2       1 <0>         0.6548
     37 O3          1.1940    2.4815   12.5588 O.2       1 <0>        -0.5534
     38 O4          3.2860    2.3564   13.2891 O.3       1 <0>        -0.3548
     39 C28         2.9685    3.3469   14.2691 C.3       1 <0>         0.1355
     40 C29         1.8455    2.8305   15.1708 C.3       1 <0>        -0.1863
     41 C30         4.2080    3.6419   15.1162 C.3       1 <0>        -0.1424
     42 C31         2.5121    4.6287   13.5694 C.3       1 <0>        -0.1879
     43 O5          2.3009   -0.8730    2.0042 O.3       1 <0>        -0.5516
     44 O6          0.1047    2.0535    1.8121 O.3       1 <0>        -0.5489
     45 H3          2.9482    1.8950   -2.1134 H         1 <0>         0.0539
     46 H4          1.6838    2.9651   -2.7649 H         1 <0>         0.0574
     47 H5          2.6504    3.4809   -1.3621 H         1 <0>         0.0534
     48 H6          0.4454    2.7471   -0.5906 H         1 <0>         0.0773
     49 H7          1.1328    0.1168   -1.9783 H         1 <0>         0.0539
     50 H8         -0.3113    0.4184   -0.9825 H         1 <0>         0.0528
     51 H9         -0.0938    1.2870   -2.5209 H         1 <0>         0.0572
     52 H10         2.4979    0.5681   -0.0080 H         1 <0>         0.0803
     53 H11         2.5082    2.1771    0.7532 H         1 <0>         0.0651
     54 H12        -0.0968    0.6110    3.8192 H         1 <0>         0.1228
     55 H13        -0.7850   -0.9366    1.9582 H         1 <0>         0.0837
     56 H14         0.2564   -2.1926    2.6696 H         1 <0>         0.0689
     57 H15        -1.9316   -0.7850    4.2490 H         1 <0>         0.0762
     58 H16        -0.4275   -3.4153    4.6179 H         1 <0>         0.0576
     59 H17        -0.1381   -1.9169    5.5340 H         1 <0>         0.0651
     60 H18        -1.5942   -3.4701    6.8053 H         1 <0>         0.0534
     61 H19        -2.4697   -1.9811    6.3755 H         1 <0>         0.0635
     62 H20        -2.6008   -4.6248    4.8554 H         1 <0>         0.0598
     63 H21        -3.8597   -3.9880    5.9406 H         1 <0>         0.0612
     64 H22        -4.3942   -3.4929    3.5704 H         1 <0>         0.0635
     65 H23        -4.1049   -1.9945    4.4864 H         1 <0>         0.0626
     66 H24        -2.9381   -1.9397    2.2991 H         1 <0>         0.0636
     67 H25        -2.0626   -3.4287    2.7288 H         1 <0>         0.0608
     68 H26         1.8878   -1.4675    4.5732 H         1 <0>         0.4028
     69 H27         2.7523   -0.5373    6.9811 H         1 <0>         0.1267
     70 H28         0.5328   -2.5774    7.4509 H         1 <0>         0.1257
     71 H29         1.8714   -2.7885    6.2969 H         1 <0>         0.1146
     72 H30         3.2872   -3.5187   11.2719 H         1 <0>         0.4660
     73 H31         1.1960   -2.5409   10.0984 H         1 <0>         0.2177
     74 H32         5.1413   -4.0337    9.5876 H         1 <0>         0.2665
     75 H33         0.2680    0.1502    8.3533 H         1 <0>         0.4230
     76 H34         0.7588    1.3898   10.4373 H         1 <0>         0.1249
     77 H35         1.2839   -1.3995   11.5515 H         1 <0>         0.0618
     78 H36         0.3715   -0.1394   12.4162 H         1 <0>         0.0985
     79 H37        -0.3313   -1.1440    9.6240 H         1 <0>         0.0691
     80 H38        -1.5536   -1.8379   12.3334 H         1 <0>         0.0664
     81 H39        -2.1776   -2.3576   10.7495 H         1 <0>         0.0681
     82 H40        -0.5931   -2.9379   11.3158 H         1 <0>         0.0478
     83 H41        -1.1241    1.1235   10.0847 H         1 <0>         0.0573
     84 H42        -2.5041    0.0019   10.1623 H         1 <0>         0.0663
     85 H43        -1.7678    0.6122   11.6635 H         1 <0>         0.0681
     86 H44         3.4264    0.7054   11.3792 H         1 <0>         0.4131
     87 H45         2.1707    1.9173   15.6693 H         1 <0>         0.0592
     88 H46         1.6033    3.5860   15.9183 H         1 <0>         0.0746
     89 H47         0.9625    2.6204   14.5673 H         1 <0>         0.0868
     90 H48         5.0080    4.0097   14.4737 H         1 <0>         0.0678
     91 H49         3.9658    4.3973   15.8637 H         1 <0>         0.0851
     92 H50         4.5331    2.7287   15.6147 H         1 <0>         0.0671
     93 H51         1.6291    4.4185   12.9659 H         1 <0>         0.0868
     94 H52         2.2699    5.3842   14.3168 H         1 <0>         0.0748
     95 H53         3.3121    4.9965   12.9269 H         1 <0>         0.0604
     96 H54         1.7576   -1.5442    1.5689 H         1 <0>         0.3775
     97 H55         0.6479    2.7247    2.2474 H         1 <0>         0.3768
     98 H56         4.1800   -3.3794    7.3773 H         1 <0>         0.4633
@<TRIPOS>BOND
     1    1    2 1
     2    1   45 1
     3    1   46 1
     4    1   47 1
     5    2    3 1
     6    2    4 1
     7    2   48 1
     8    3   49 1
     9    3   50 1
    10    3   51 1
    11    4    5 1
    12    4   52 1
    13    4   53 1
    14    5    6 1
    15    5    7 1
    16    5   44 1
    17    7    8 1
    18    7    9 1
    19    7   43 1
    20    9   10 1
    21    9   17 1
    22    9   54 1
    23   10   11 1
    24   10   55 1
    25   10   56 1
    26   11   16 1
    27   11   12 1
    28   11   57 1
    29   12   13 1
    30   12   58 1
    31   12   59 1
    32   13   14 1
    33   13   60 1
    34   13   61 1
    35   14   15 1
    36   14   62 1
    37   14   63 1
    38   15   16 1
    39   15   64 1
    40   15   65 1
    41   16   66 1
    42   16   67 1
    43   17   18 am
    44   17   68 1
    45   18   19 2
    46   18   20 1
    47   20   21 1
    48   20   27 1
    49   20   69 1
    50   21   70 1
    51   21   71 1
    52   21   22 1
    53   22   23 2
    54   22   26 1
    55   23   24 1
    56   23   73 1
    57   24   25 1
    58   24   72 1
    59   25   74 1
    60   25   26 2
    61   26   98 1
    62   27   28 am
    63   27   75 1
    64   28   29 2
    65   28   30 1
    66   30   31 1
    67   30   35 1
    68   30   76 1
    69   31   32 1
    70   31   77 1
    71   31   78 1
    72   32   33 1
    73   32   34 1
    74   32   79 1
    75   33   80 1
    76   33   81 1
    77   33   82 1
    78   34   83 1
    79   34   84 1
    80   34   85 1
    81   35   36 am
    82   35   86 1
    83   36   37 2
    84   36   38 1
    85   38   39 1
    86   39   40 1
    87   39   41 1
    88   39   42 1
    89   40   87 1
    90   40   88 1
    91   40   89 1
    92   41   90 1
    93   41   91 1
    94   41   92 1
    95   42   93 1
    96   42   94 1
    97   42   95 1
    98   43   96 1
    99   44   97 1
@<TRIPOS>MOLECULE
CHEMBL73216__16
   97    98     0     0     0
SMALL
USER_CHARGES

@<TRIPOS>ATOM
      1 C1          0.8078   -0.6724   -3.8556 C.3       1 <0>        -0.1491
      2 C2          0.5964   -1.6363   -2.6864 C.3       1 <0>        -0.0946
      3 C3          1.1331   -1.0040   -1.4007 C.3       1 <0>        -0.1498
      4 C4         -0.8976   -1.9254   -2.5275 C.3       1 <0>        -0.1436
      5 C5         -1.0995   -2.9836   -1.4411 C.3       1 <0>         0.0760
      6 H1         -0.6201   -2.6541   -0.5193 H         1 <0>         0.1064
      7 C6         -2.5964   -3.1824   -1.1946 C.3       1 <0>         0.0662
      8 H2         -3.0757   -3.5119   -2.1164 H         1 <0>         0.1027
      9 C7         -2.7983   -4.2406   -0.1082 C.3       1 <0>         0.1122
     10 C8         -2.2348   -3.7246    1.2174 C.3       1 <0>        -0.1324
     11 C9         -2.2557   -4.8505    2.2532 C.3       1 <0>        -0.0792
     12 C10        -3.7047   -5.2334    2.5610 C.3       1 <0>        -0.1315
     13 C11        -3.7256   -6.3593    3.5968 C.3       1 <0>        -0.1221
     14 C12        -3.0399   -5.8849    4.8796 C.3       1 <0>        -0.1190
     15 C13        -1.5909   -5.5019    4.5718 C.3       1 <0>        -0.1202
     16 C14        -1.5700   -4.3761    3.5360 C.3       1 <0>        -0.1139
     17 N1         -4.2288   -4.5175    0.0440 N.am      1 <0>        -0.7111
     18 C15        -4.7124   -5.7424   -0.2428 C.2       1 <0>         0.5158
     19 O1         -3.9736   -6.5987   -0.6808 O.2       1 <0>        -0.5220
     20 C16        -6.1710   -6.0479   -0.0191 C.3       1 <0>         0.1346
     21 C17        -6.5121   -5.8528    1.4595 C.3       1 <0>        -0.0541
     22 C18        -7.9939   -6.0384    1.6620 C.2       1 <0>        -0.0167
     23 C19        -8.6380   -7.2056    1.8529 C.2       1 <0>        -0.0065
     24 N2         -9.9454   -6.9401    1.9917 N.2       1 <0>        -0.4844
     25 C20       -10.1359   -5.6528    1.8941 C.2       1 <0>         0.1918
     26 N3         -8.9430   -5.0526    1.6932 N.pl3     1 <0>        -0.5596
     27 N4         -6.4441   -7.4348   -0.4044 N.am      1 <0>        -0.7084
     28 C21        -7.6874   -7.7985   -0.7763 C.2       1 <0>         0.5184
     29 O2         -8.5801   -6.9778   -0.7921 O.2       1 <0>        -0.5100
     30 C22        -7.9682   -9.2251   -1.1726 C.3       1 <0>         0.1505
     31 C23        -7.6471  -10.1530    0.0008 C.3       1 <0>        -0.1260
     32 C24        -7.8127  -11.6087   -0.4400 C.3       1 <0>        -0.0906
     33 C25        -6.7728  -11.9381   -1.5129 C.3       1 <0>        -0.1407
     34 C26        -7.6136  -12.5319    0.7637 C.3       1 <0>        -0.1483
     35 N5         -9.3819   -9.3630   -1.5314 N.am      1 <0>        -0.6913
     36 C27        -9.7720  -10.3445   -2.3687 C.2       1 <0>         0.6542
     37 O3         -8.9512  -11.1150   -2.8258 O.2       1 <0>        -0.5563
     38 O4        -11.0712  -10.4711   -2.6985 O.3       1 <0>        -0.3563
     39 C28       -11.4134  -11.5337   -3.5906 C.3       1 <0>         0.1366
     40 C29       -11.0155  -12.8724   -2.9658 C.3       1 <0>        -0.1859
     41 C30       -12.9217  -11.5187   -3.8468 C.3       1 <0>        -0.1417
     42 C31       -10.6694  -11.3476   -4.9146 C.3       1 <0>        -0.1854
     43 O5         -3.1774   -1.9476   -0.7707 O.3       1 <0>        -0.5503
     44 O6         -0.5185   -4.2184   -1.8650 O.3       1 <0>        -0.5500
     45 H3          1.8722   -0.4664   -3.9689 H         1 <0>         0.0553
     46 H4          0.4254   -1.1228   -4.7716 H         1 <0>         0.0532
     47 H5          0.2764    0.2589   -3.6594 H         1 <0>         0.0536
     48 H6          1.1279   -2.5675   -2.8827 H         1 <0>         0.0764
     49 H7          0.6017   -0.0727   -1.2045 H         1 <0>         0.0535
     50 H8          0.9826   -1.6907   -0.5678 H         1 <0>         0.0543
     51 H9          2.1975   -0.7980   -1.5140 H         1 <0>         0.0552
     52 H10        -1.4166   -1.0099   -2.2439 H         1 <0>         0.0799
     53 H11        -1.2990   -2.2930   -3.4719 H         1 <0>         0.0649
     54 H12        -2.2792   -5.1562   -0.3919 H         1 <0>         0.1215
     55 H13        -1.2093   -3.3863    1.0691 H         1 <0>         0.0806
     56 H14        -2.8440   -2.8932    1.5720 H         1 <0>         0.0689
     57 H15        -1.7269   -5.7177    1.8578 H         1 <0>         0.0724
     58 H16        -4.2336   -4.3662    2.9563 H         1 <0>         0.0572
     59 H17        -4.1932   -5.5714    1.6471 H         1 <0>         0.0780
     60 H18        -4.7579   -6.6321    3.8161 H         1 <0>         0.0598
     61 H19        -3.1967   -7.2265    3.2015 H         1 <0>         0.0612
     62 H20        -3.5688   -5.0176    5.2749 H         1 <0>         0.0592
     63 H21        -3.0548   -6.6870    5.6176 H         1 <0>         0.0597
     64 H22        -1.1024   -5.1640    5.4857 H         1 <0>         0.0605
     65 H23        -1.0621   -6.3692    4.1765 H         1 <0>         0.0613
     66 H24        -0.5378   -4.1033    3.3167 H         1 <0>         0.0607
     67 H25        -2.0989   -3.5088    3.9313 H         1 <0>         0.0603
     68 H26        -4.8279   -3.8192    0.3511 H         1 <0>         0.4041
     69 H27        -6.7799   -5.3762   -0.6242 H         1 <0>         0.1148
     70 H28        -5.9692   -6.5848    2.0573 H         1 <0>         0.1002
     71 H29        -6.2263   -4.8474    1.7687 H         1 <0>         0.0850
     72 H30        -8.7878   -4.1008    1.5888 H         1 <0>         0.4148
     73 H31        -8.1818   -8.1839    1.8880 H         1 <0>         0.1551
     74 H32       -11.0892   -5.1504    1.9657 H         1 <0>         0.2024
     75 H33        -5.7300   -8.0912   -0.3917 H         1 <0>         0.4126
     76 H34        -7.3484   -9.4933   -2.0281 H         1 <0>         0.1200
     77 H35        -6.6200   -9.9863    0.3253 H         1 <0>         0.0779
     78 H36        -8.3275   -9.9437    0.8263 H         1 <0>         0.0764
     79 H37        -8.8134  -11.7534   -0.8473 H         1 <0>         0.0779
     80 H38        -6.9147  -11.2804   -2.3705 H         1 <0>         0.0720
     81 H39        -5.7722  -11.7934   -1.1056 H         1 <0>         0.0423
     82 H40        -6.8908  -12.9752   -1.8270 H         1 <0>         0.0499
     83 H41        -8.3545  -12.2973    1.5280 H         1 <0>         0.0513
     84 H42        -7.7316  -13.5690    0.4496 H         1 <0>         0.0542
     85 H43        -6.6130  -12.3872    1.1710 H         1 <0>         0.0529
     86 H44       -10.0371   -8.7478   -1.1665 H         1 <0>         0.4165
     87 H45       -11.5455  -13.0050   -2.0226 H         1 <0>         0.0586
     88 H46       -11.2765  -13.6829   -3.6463 H         1 <0>         0.0686
     89 H47        -9.9409  -12.8830   -2.7833 H         1 <0>         0.0902
     90 H48       -13.2052  -10.5650   -4.2919 H         1 <0>         0.0659
     91 H49       -13.1828  -12.3292   -4.5273 H         1 <0>         0.0801
     92 H50       -13.4518  -11.6513   -2.9036 H         1 <0>         0.0667
     93 H51        -9.5949  -11.3583   -4.7321 H         1 <0>         0.0889
     94 H52       -10.9305  -12.1581   -5.5951 H         1 <0>         0.0689
     95 H53       -10.9529  -10.3939   -5.3597 H         1 <0>         0.0576
     96 H54        -2.7982   -1.5943    0.0457 H         1 <0>         0.3746
     97 H55        -0.8976   -4.5717   -2.6815 H         1 <0>         0.3772
@<TRIPOS>BOND
     1    1    2 1
     2    1   45 1
     3    1   46 1
     4    1   47 1
     5    2    3 1
     6    2    4 1
     7    2   48 1
     8    3   49 1
     9    3   50 1
    10    3   51 1
    11    4    5 1
    12    4   52 1
    13    4   53 1
    14    5    6 1
    15    5    7 1
    16    5   44 1
    17    7    8 1
    18    7    9 1
    19    7   43 1
    20    9   10 1
    21    9   17 1
    22    9   54 1
    23   10   11 1
    24   10   55 1
    25   10   56 1
    26   11   16 1
    27   11   12 1
    28   11   57 1
    29   12   13 1
    30   12   58 1
    31   12   59 1
    32   13   14 1
    33   13   60 1
    34   13   61 1
    35   14   15 1
    36   14   62 1
    37   14   63 1
    38   15   16 1
    39   15   64 1
    40   15   65 1
    41   16   66 1
    42   16   67 1
    43   17   18 am
    44   17   68 1
    45   18   19 2
    46   18   20 1
    47   20   21 1
    48   20   27 1
    49   20   69 1
    50   21   70 1
    51   21   71 1
    52   21   22 1
    53   22   23 2
    54   22   26 1
    55   23   24 1
    56   23   73 1
    57   24   25 2
    58   25   74 1
    59   25   26 1
    60   26   72 1
    61   27   28 am
    62   27   75 1
    63   28   29 2
    64   28   30 1
    65   30   31 1
    66   30   35 1
    67   30   76 1
    68   31   32 1
    69   31   77 1
    70   31   78 1
    71   32   33 1
    72   32   34 1
    73   32   79 1
    74   33   80 1
    75   33   81 1
    76   33   82 1
    77   34   83 1
    78   34   84 1
    79   34   85 1
    80   35   36 am
    81   35   86 1
    82   36   37 2
    83   36   38 1
    84   38   39 1
    85   39   40 1
    86   39   41 1
    87   39   42 1
    88   40   87 1
    89   40   88 1
    90   40   89 1
    91   41   90 1
    92   41   91 1
    93   41   92 1
    94   42   93 1
    95   42   94 1
    96   42   95 1
    97   43   96 1
    98   44   97 1
@<TRIPOS>MOLECULE
CHEMBL73216__17
   97    98     0     0     0
SMALL
USER_CHARGES

@<TRIPOS>ATOM
      1 C1          0.1857    3.7177   -0.8540 C.3       1 <0>        -0.1490
      2 C2         -0.3431    2.6447   -1.8079 C.3       1 <0>        -0.0944
      3 C3          0.6679    1.4999   -1.8986 C.3       1 <0>        -0.1502
      4 C4         -1.6760    2.1076   -1.2829 C.3       1 <0>        -0.1437
      5 C5         -2.2529    1.1062   -2.2856 C.3       1 <0>         0.0757
      6 H1         -1.5116    0.3354   -2.4966 H         1 <0>         0.1068
      7 C6         -3.5077    0.4593   -1.6958 C.3       1 <0>         0.0662
      8 H2         -4.2489    1.2301   -1.4848 H         1 <0>         0.1029
      9 C7         -4.0845   -0.5421   -2.6985 C.3       1 <0>         0.1123
     10 C8         -3.0936   -1.6904   -2.9000 C.3       1 <0>        -0.1324
     11 C9         -3.5774   -2.5872   -4.0412 C.3       1 <0>        -0.0776
     12 C10        -4.8688   -3.2931   -3.6228 C.3       1 <0>        -0.1293
     13 C11        -5.3526   -4.1900   -4.7641 C.3       1 <0>        -0.1193
     14 C12        -4.2804   -5.2342   -5.0817 C.3       1 <0>        -0.1192
     15 C13        -2.9891   -4.5283   -5.5001 C.3       1 <0>        -0.1197
     16 C14        -2.5053   -3.6315   -4.3589 C.3       1 <0>        -0.1143
     17 N1         -5.3497   -1.0733   -2.1854 N.am      1 <0>        -0.7124
     18 C15        -6.4852   -0.9106   -2.8929 C.2       1 <0>         0.5172
     19 O1         -6.4451   -0.4120   -3.9977 O.2       1 <0>        -0.5283
     20 C16        -7.8047   -1.3482   -2.3111 C.3       1 <0>         0.1376
     21 C17        -7.7615   -2.8500   -2.0217 C.3       1 <0>        -0.0399
     22 C18        -9.0334   -3.2647   -1.3278 C.2       1 <0>         0.0095
     23 C19        -9.8746   -4.2357   -1.7314 C.2       1 <0>        -0.0575
     24 N2        -10.8939   -4.2813   -0.8189 N.pl3     1 <0>        -0.5711
     25 C20       -10.6398   -3.3357    0.1112 C.2       1 <0>         0.1932
     26 N3         -9.5229   -2.7352   -0.1969 N.2       1 <0>        -0.4518
     27 N4         -8.8778   -1.0660   -3.2677 N.am      1 <0>        -0.7068
     28 C21       -10.1402   -0.8869   -2.8308 C.2       1 <0>         0.5090
     29 O2        -10.3878   -0.9596   -1.6457 O.2       1 <0>        -0.4972
     30 C22       -11.2440   -0.5966   -3.8148 C.3       1 <0>         0.1477
     31 C23       -11.3578   -1.7534   -4.8096 C.3       1 <0>        -0.1198
     32 C24       -12.3918   -1.4041   -5.8819 C.3       1 <0>        -0.0914
     33 C25       -11.8935   -0.2125   -6.7020 C.3       1 <0>        -0.1408
     34 C26       -12.5969   -2.6077   -6.8039 C.3       1 <0>        -0.1475
     35 N5        -12.5114   -0.4443   -3.0959 N.am      1 <0>        -0.6919
     36 C27       -13.5078    0.2867   -3.6340 C.2       1 <0>         0.6532
     37 O3        -13.3548    0.8194   -4.7154 O.2       1 <0>        -0.5544
     38 O4        -14.6725    0.4266   -2.9734 O.3       1 <0>        -0.3579
     39 C28       -15.6846    1.2150   -3.6027 C.3       1 <0>         0.1368
     40 C29       -16.0496    0.5935   -4.9524 C.3       1 <0>        -0.1858
     41 C30       -16.9259    1.2591   -2.7093 C.3       1 <0>        -0.1415
     42 C31       -15.1621    2.6364   -3.8204 C.3       1 <0>        -0.1858
     43 O5         -3.1691   -0.2202   -0.4852 O.3       1 <0>        -0.5490
     44 O6         -2.5914    1.7857   -3.4963 O.3       1 <0>        -0.5505
     45 H3          1.1748    4.0388   -1.1806 H         1 <0>         0.0550
     46 H4         -0.4923    4.5712   -0.8555 H         1 <0>         0.0530
     47 H5          0.2512    3.3076    0.1538 H         1 <0>         0.0538
     48 H6         -0.4904    3.0785   -2.7970 H         1 <0>         0.0757
     49 H7          0.8152    1.0661   -0.9095 H         1 <0>         0.0538
     50 H8          0.2912    0.7355   -2.5782 H         1 <0>         0.0546
     51 H9          1.6175    1.8825   -2.2726 H         1 <0>         0.0548
     52 H10        -1.5162    1.6119   -0.3254 H         1 <0>         0.0807
     53 H11        -2.3746    2.9341   -1.1521 H         1 <0>         0.0650
     54 H12        -4.2600   -0.0423   -3.6512 H         1 <0>         0.1200
     55 H13        -2.1127   -1.2846   -3.1476 H         1 <0>         0.0782
     56 H14        -3.0239   -2.2753   -1.9828 H         1 <0>         0.0689
     57 H15        -3.7660   -1.9793   -4.9261 H         1 <0>         0.0721
     58 H16        -4.6802   -3.9010   -2.7379 H         1 <0>         0.0569
     59 H17        -5.6326   -2.5492   -3.3965 H         1 <0>         0.0789
     60 H18        -6.2725   -4.6929   -4.4660 H         1 <0>         0.0571
     61 H19        -5.5411   -3.5821   -5.6489 H         1 <0>         0.0602
     62 H20        -4.0919   -5.8421   -4.1968 H         1 <0>         0.0593
     63 H21        -4.6251   -5.8732   -5.8947 H         1 <0>         0.0580
     64 H22        -2.2253   -5.2723   -5.7264 H         1 <0>         0.0595
     65 H23        -3.1776   -3.9204   -6.3850 H         1 <0>         0.0607
     66 H24        -1.5853   -3.1286   -4.6570 H         1 <0>         0.0598
     67 H25        -2.3167   -4.2394   -3.4740 H         1 <0>         0.0602
     68 H26        -5.3702   -1.5420   -1.3364 H         1 <0>         0.4067
     69 H27        -7.9915   -0.8049   -1.3848 H         1 <0>         0.1252
     70 H28        -7.6636   -3.3980   -2.9589 H         1 <0>         0.0827
     71 H29        -6.9087   -3.0720   -1.3802 H         1 <0>         0.0855
     72 H30       -11.6562   -4.8807   -0.8369 H         1 <0>         0.4167
     73 H31        -9.7662   -4.8586   -2.6070 H         1 <0>         0.1660
     74 H32       -11.2566   -3.1159    0.9701 H         1 <0>         0.2000
     75 H33        -8.6798   -1.0079   -4.2155 H         1 <0>         0.4088
     76 H34       -11.0184    0.3243   -4.3526 H         1 <0>         0.1192
     77 H35       -10.3897   -1.9242   -5.2805 H         1 <0>         0.0782
     78 H36       -11.6702   -2.6555   -4.2837 H         1 <0>         0.0685
     79 H37       -13.3374   -1.1468   -5.4046 H         1 <0>         0.0765
     80 H38       -12.6302    0.0363   -7.4659 H         1 <0>         0.0499
     81 H39       -11.7474    0.6450   -6.0451 H         1 <0>         0.0728
     82 H40       -10.9480   -0.4698   -7.1793 H         1 <0>         0.0429
     83 H41       -12.9519   -3.4567   -6.2196 H         1 <0>         0.0483
     84 H42       -13.3335   -2.3589   -7.5678 H         1 <0>         0.0545
     85 H43       -11.6513   -2.8651   -7.2812 H         1 <0>         0.0534
     86 H44       -12.6335   -0.8696   -2.2327 H         1 <0>         0.4127
     87 H45       -16.4218   -0.4192   -4.7973 H         1 <0>         0.0574
     88 H46       -16.8216    1.1949   -5.4324 H         1 <0>         0.0693
     89 H47       -15.1653    0.5621   -5.5889 H         1 <0>         0.0901
     90 H48       -16.6659    1.7019   -1.7478 H         1 <0>         0.0665
     91 H49       -17.6979    1.8605   -3.1893 H         1 <0>         0.0806
     92 H50       -17.2981    0.2465   -2.5542 H         1 <0>         0.0657
     93 H51       -14.2779    2.6050   -4.4569 H         1 <0>         0.0891
     94 H52       -15.9342    3.2378   -4.3005 H         1 <0>         0.0693
     95 H53       -14.9021    3.0792   -2.8589 H         1 <0>         0.0585
     96 H54        -2.5127   -0.9213   -0.5979 H         1 <0>         0.3746
     97 H55        -3.2478    2.4868   -3.3835 H         1 <0>         0.3765
@<TRIPOS>BOND
     1    1    2 1
     2    1   45 1
     3    1   46 1
     4    1   47 1
     5    2    3 1
     6    2    4 1
     7    2   48 1
     8    3   49 1
     9    3   50 1
    10    3   51 1
    11    4    5 1
    12    4   52 1
    13    4   53 1
    14    5    6 1
    15    5    7 1
    16    5   44 1
    17    7    8 1
    18    7    9 1
    19    7   43 1
    20    9   10 1
    21    9   17 1
    22    9   54 1
    23   10   11 1
    24   10   55 1
    25   10   56 1
    26   11   16 1
    27   11   12 1
    28   11   57 1
    29   12   13 1
    30   12   58 1
    31   12   59 1
    32   13   14 1
    33   13   60 1
    34   13   61 1
    35   14   15 1
    36   14   62 1
    37   14   63 1
    38   15   16 1
    39   15   64 1
    40   15   65 1
    41   16   66 1
    42   16   67 1
    43   17   18 am
    44   17   68 1
    45   18   19 2
    46   18   20 1
    47   20   21 1
    48   20   27 1
    49   20   69 1
    50   21   70 1
    51   21   71 1
    52   21   22 1
    53   22   23 2
    54   22   26 1
    55   23   24 1
    56   23   73 1
    57   24   25 1
    58   24   72 1
    59   25   74 1
    60   25   26 2
    61   27   28 am
    62   27   75 1
    63   28   29 2
    64   28   30 1
    65   30   31 1
    66   30   35 1
    67   30   76 1
    68   31   32 1
    69   31   77 1
    70   31   78 1
    71   32   33 1
    72   32   34 1
    73   32   79 1
    74   33   80 1
    75   33   81 1
    76   33   82 1
    77   34   83 1
    78   34   84 1
    79   34   85 1
    80   35   36 am
    81   35   86 1
    82   36   37 2
    83   36   38 1
    84   38   39 1
    85   39   40 1
    86   39   41 1
    87   39   42 1
    88   40   87 1
    89   40   88 1
    90   40   89 1
    91   41   90 1
    92   41   91 1
    93   41   92 1
    94   42   93 1
    95   42   94 1
    96   42   95 1
    97   43   96 1
    98   44   97 1
@<TRIPOS>MOLECULE
CHEMBL73216__18
   98    99     0     0     0
SMALL
USER_CHARGES

@<TRIPOS>ATOM
      1 C1         -1.0381    3.9467    0.4922 C.3       1 <0>        -0.1500
      2 C2         -1.5848    2.7933    1.3359 C.3       1 <0>        -0.0947
      3 C3         -2.0862    1.6800    0.4139 C.3       1 <0>        -0.1513
      4 C4         -0.4739    2.2486    2.2359 C.3       1 <0>        -0.1422
      5 C5         -1.0408    1.1506    3.1380 C.3       1 <0>         0.0736
      6 H1         -1.5326    0.3949    2.5255 H         1 <0>         0.1086
      7 C6          0.0970    0.5035    3.9304 C.3       1 <0>         0.0688
      8 H2          0.5888    1.2591    4.5429 H         1 <0>         0.1024
      9 C7         -0.4700   -0.5945    4.8325 C.3       1 <0>         0.1114
     10 C8         -1.0501   -1.7158    3.9682 C.3       1 <0>        -0.1340
     11 C9         -1.7557   -2.7366    4.8632 C.3       1 <0>        -0.0788
     12 C10        -0.7223   -3.4459    5.7406 C.3       1 <0>        -0.1232
     13 C11        -1.4279   -4.4667    6.6357 C.3       1 <0>        -0.1195
     14 C12        -2.1498   -5.4963    5.7641 C.3       1 <0>        -0.1200
     15 C13        -3.1832   -4.7870    4.8867 C.3       1 <0>        -0.1214
     16 C14        -2.4776   -3.7662    3.9916 C.3       1 <0>        -0.1151
     17 N1          0.5990   -1.1326    5.6775 N.am      1 <0>        -0.7079
     18 C15         0.4911   -1.0740    7.0197 C.2       1 <0>         0.5148
     19 O1         -0.5295   -0.6613    7.5285 O.2       1 <0>        -0.5105
     20 C16         1.6386   -1.5214    7.8881 C.3       1 <0>         0.1257
     21 C17         2.8732   -0.6722    7.5792 C.3       1 <0>        -0.0709
     22 C18         4.0520   -1.1981    8.3569 C.2       1 <0>         0.0397
     23 C19         4.8647   -2.2032    7.9790 C.2       1 <0>         0.0553
     24 N2          5.7966   -2.3530    8.9703 N.pl3     1 <0>        -0.4992
     25 C20         5.5208   -1.4336    9.9202 C.cat     1 <0>         0.3071
     26 N3          4.4792   -0.7432    9.5442 N.pl3     1 <0>        -0.4742
     27 N4          1.2755   -1.3603    9.2982 N.am      1 <0>        -0.7071
     28 C21         1.8729   -2.1186   10.2388 C.2       1 <0>         0.5158
     29 O2          2.7110   -2.9343    9.9178 O.2       1 <0>        -0.5340
     30 C22         1.4994   -1.9529   11.6893 C.3       1 <0>         0.1420
     31 C23         1.7925   -0.5175   12.1307 C.3       1 <0>        -0.1240
     32 C24         1.2989   -0.3140   13.5645 C.3       1 <0>        -0.0914
     33 C25         1.7024    1.0798   14.0498 C.3       1 <0>        -0.1503
     34 C26        -0.2249   -0.4461   13.6029 C.3       1 <0>        -0.1449
     35 N5          2.2829   -2.8842   12.5048 N.am      1 <0>        -0.6989
     36 C27         1.8130   -3.2930   13.7000 C.2       1 <0>         0.6527
     37 O3          0.7395   -2.8891   14.1013 O.2       1 <0>        -0.5436
     38 O4          2.5331   -4.1489   14.4495 O.3       1 <0>        -0.3565
     39 C28         1.9744   -4.5399   15.7052 C.3       1 <0>         0.1375
     40 C29         0.6287   -5.2295   15.4721 C.3       1 <0>        -0.1874
     41 C30         2.9282   -5.5075   16.4087 C.3       1 <0>        -0.1426
     42 C31         1.7680   -3.3013   16.5795 C.3       1 <0>        -0.1867
     43 O5          1.0443   -0.0660    3.0247 O.3       1 <0>        -0.5523
     44 O6         -1.9881    1.7201    4.0437 O.3       1 <0>        -0.5484
     45 H3         -0.1608    3.6091   -0.0597 H         1 <0>         0.0540
     46 H4         -1.8034    4.2781   -0.2096 H         1 <0>         0.0574
     47 H5         -0.7605    4.7745    1.1447 H         1 <0>         0.0531
     48 H6         -2.4085    3.1529    1.9526 H         1 <0>         0.0763
     49 H7         -1.2625    1.3204   -0.2028 H         1 <0>         0.0541
     50 H8         -2.4756    0.8584    1.0150 H         1 <0>         0.0540
     51 H9         -2.8776    2.0681   -0.2273 H         1 <0>         0.0573
     52 H10         0.3241    1.8358    1.6187 H         1 <0>         0.0806
     53 H11        -0.0765    3.0556    2.8515 H         1 <0>         0.0644
     54 H12        -1.2559   -0.1776    5.4623 H         1 <0>         0.1229
     55 H13        -1.7659   -1.2963    3.2612 H         1 <0>         0.0833
     56 H14        -0.2449   -2.2069    3.4217 H         1 <0>         0.0700
     57 H15        -2.4803   -2.2249    5.4967 H         1 <0>         0.0730
     58 H16         0.0022   -3.9576    5.1072 H         1 <0>         0.0566
     59 H17        -0.2080   -2.7124    6.3615 H         1 <0>         0.0678
     60 H18        -0.6918   -4.9721    7.2607 H         1 <0>         0.0540
     61 H19        -2.1525   -3.9550    7.2691 H         1 <0>         0.0598
     62 H20        -1.4253   -6.0080    5.1306 H         1 <0>         0.0601
     63 H21        -2.6525   -6.2236    6.4017 H         1 <0>         0.0606
     64 H22        -3.6975   -5.5205    4.2657 H         1 <0>         0.0635
     65 H23        -3.9077   -4.2753    5.5201 H         1 <0>         0.0618
     66 H24        -3.2138   -3.2608    3.3665 H         1 <0>         0.0631
     67 H25        -1.7530   -4.2779    3.3582 H         1 <0>         0.0613
     68 H26         1.3844   -1.5311    5.2710 H         1 <0>         0.4051
     69 H27         1.8591   -2.5698    7.6872 H         1 <0>         0.1288
     70 H28         3.0906   -0.7218    6.5122 H         1 <0>         0.1286
     71 H29         2.6828    0.3627    7.8635 H         1 <0>         0.1074
     72 H30         6.5201   -2.9990    8.9873 H         1 <0>         0.4668
     73 H31         4.7944   -2.7804    7.0689 H         1 <0>         0.2231
     74 H32         6.0732   -1.2907   10.8371 H         1 <0>         0.2620
     75 H33         0.6051   -0.7079    9.5550 H         1 <0>         0.4212
     76 H34         0.4374   -2.1627   11.8173 H         1 <0>         0.1311
     77 H35         2.8664   -0.3361   12.0869 H         1 <0>         0.0601
     78 H36         1.2790    0.1786   11.4674 H         1 <0>         0.0821
     79 H37         1.7454   -1.0679   14.2129 H         1 <0>         0.0804
     80 H38         1.2559    1.8336   13.4014 H         1 <0>         0.0552
     81 H39         1.3508    1.2248   15.0713 H         1 <0>         0.0610
     82 H40         2.7880    1.1739   14.0224 H         1 <0>         0.0487
     83 H41        -0.5123   -1.4391   13.2572 H         1 <0>         0.0725
     84 H42        -0.5765   -0.3011   14.6244 H         1 <0>         0.0565
     85 H43        -0.6714    0.3078   12.9545 H         1 <0>         0.0454
     86 H44         3.1398   -3.2066   12.1845 H         1 <0>         0.4086
     87 H45         0.7757   -6.1119   14.8493 H         1 <0>         0.0593
     88 H46         0.2025   -5.5278   16.4299 H         1 <0>         0.0739
     89 H47        -0.0509   -4.5402   14.9709 H         1 <0>         0.0878
     90 H48         3.8869   -5.0162   16.5748 H         1 <0>         0.0666
     91 H49         2.5020   -5.8058   17.3665 H         1 <0>         0.0847
     92 H50         3.0752   -6.3899   15.7859 H         1 <0>         0.0671
     93 H51         1.0885   -2.6120   16.0783 H         1 <0>         0.0887
     94 H52         1.3418   -3.5996   17.5373 H         1 <0>         0.0738
     95 H53         2.7267   -2.8100   16.7455 H         1 <0>         0.0585
     96 H54         0.6752   -0.7479    2.4468 H         1 <0>         0.3789
     97 H55        -1.6190    2.4019    4.6216 H         1 <0>         0.3755
     98 H56         4.0763   -0.0169   10.0453 H         1 <0>         0.4577
@<TRIPOS>BOND
     1    1    2 1
     2    1   45 1
     3    1   46 1
     4    1   47 1
     5    2    3 1
     6    2    4 1
     7    2   48 1
     8    3   49 1
     9    3   50 1
    10    3   51 1
    11    4    5 1
    12    4   52 1
    13    4   53 1
    14    5    6 1
    15    5    7 1
    16    5   44 1
    17    7    8 1
    18    7    9 1
    19    7   43 1
    20    9   10 1
    21    9   17 1
    22    9   54 1
    23   10   11 1
    24   10   55 1
    25   10   56 1
    26   11   16 1
    27   11   12 1
    28   11   57 1
    29   12   13 1
    30   12   58 1
    31   12   59 1
    32   13   14 1
    33   13   60 1
    34   13   61 1
    35   14   15 1
    36   14   62 1
    37   14   63 1
    38   15   16 1
    39   15   64 1
    40   15   65 1
    41   16   66 1
    42   16   67 1
    43   17   18 am
    44   17   68 1
    45   18   19 2
    46   18   20 1
    47   20   21 1
    48   20   27 1
    49   20   69 1
    50   21   70 1
    51   21   71 1
    52   21   22 1
    53   22   23 2
    54   22   26 1
    55   23   24 1
    56   23   73 1
    57   24   25 1
    58   24   72 1
    59   25   74 1
    60   25   26 2
    61   26   98 1
    62   27   28 am
    63   27   75 1
    64   28   29 2
    65   28   30 1
    66   30   31 1
    67   30   35 1
    68   30   76 1
    69   31   32 1
    70   31   77 1
    71   31   78 1
    72   32   33 1
    73   32   34 1
    74   32   79 1
    75   33   80 1
    76   33   81 1
    77   33   82 1
    78   34   83 1
    79   34   84 1
    80   34   85 1
    81   35   36 am
    82   35   86 1
    83   36   37 2
    84   36   38 1
    85   38   39 1
    86   39   40 1
    87   39   41 1
    88   39   42 1
    89   40   87 1
    90   40   88 1
    91   40   89 1
    92   41   90 1
    93   41   91 1
    94   41   92 1
    95   42   93 1
    96   42   94 1
    97   42   95 1
    98   43   96 1
    99   44   97 1
@<TRIPOS>MOLECULE
CHEMBL73216__19
   97    98     0     0     0
SMALL
USER_CHARGES

@<TRIPOS>ATOM
      1 C1          1.0528    0.8678   -0.1551 C.3       1 <0>        -0.1489
      2 C2          0.6747   -0.2779   -1.0960 C.3       1 <0>        -0.0947
      3 C3          1.2609   -1.5879   -0.5657 C.3       1 <0>        -0.1501
      4 C4         -0.8490   -0.3945   -1.1711 C.3       1 <0>        -0.1428
      5 C5         -1.2290   -1.4501   -2.2114 C.3       1 <0>         0.0760
      6 H1         -0.7412   -2.3936   -1.9666 H         1 <0>         0.1061
      7 C6         -2.7465   -1.6450   -2.2094 C.3       1 <0>         0.0678
      8 H2         -3.2344   -0.7015   -2.4542 H         1 <0>         0.1045
      9 C7         -3.1266   -2.7006   -3.2497 C.3       1 <0>         0.1136
     10 C8         -2.5441   -4.0544   -2.8388 C.3       1 <0>        -0.1328
     11 C9         -2.8554   -5.0925   -3.9188 C.3       1 <0>        -0.0779
     12 C10        -4.3299   -5.4914   -3.8329 C.3       1 <0>        -0.1216
     13 C11        -4.6412   -6.5295   -4.9129 C.3       1 <0>        -0.1195
     14 C12        -3.7652   -7.7656   -4.6998 C.3       1 <0>        -0.1185
     15 C13        -2.2906   -7.3667   -4.7857 C.3       1 <0>        -0.1195
     16 C14        -1.9793   -6.3286   -3.7057 C.3       1 <0>        -0.1137
     17 N1         -4.5858   -2.8016   -3.3323 N.am      1 <0>        -0.7145
     18 C15        -5.1992   -2.7334   -4.5304 C.2       1 <0>         0.5165
     19 O1         -4.5400   -2.6747   -5.5467 O.2       1 <0>        -0.5240
     20 C16        -6.7043   -2.7300   -4.6072 C.3       1 <0>         0.1392
     21 C17        -7.2513   -1.5230   -3.8426 C.3       1 <0>        -0.0397
     22 C18        -8.7567   -1.5861   -3.8148 C.2       1 <0>         0.0036
     23 C19        -9.5299   -1.5533   -2.7127 C.2       1 <0>        -0.0511
     24 N2        -10.8286   -1.6338   -3.1375 N.pl3     1 <0>        -0.5702
     25 C20       -10.8038   -1.7130   -4.4854 C.2       1 <0>         0.1853
     26 N3         -9.5615   -1.6788   -4.8837 N.2       1 <0>        -0.4466
     27 N4         -7.1215   -2.6499   -6.0093 N.am      1 <0>        -0.7087
     28 C21        -8.3271   -3.1235   -6.3817 C.2       1 <0>         0.5465
     29 O2         -9.0680   -3.6128   -5.5555 O.2       1 <0>        -0.5123
     30 C22        -8.7545   -3.0451   -7.8247 C.3       1 <0>         0.1534
     31 C23        -9.1885   -1.6148   -8.1511 C.3       1 <0>        -0.1108
     32 C24        -8.0084   -0.6636   -7.9426 C.3       1 <0>        -0.1034
     33 C25        -6.9235   -0.9620   -8.9793 C.3       1 <0>        -0.1554
     34 C26        -8.4838    0.7818   -8.1034 C.3       1 <0>        -0.1400
     35 N5         -9.8761   -3.9597   -8.0522 N.am      1 <0>        -0.6931
     36 C27       -10.0623   -4.5081   -9.2692 C.2       1 <0>         0.6534
     37 O3         -9.3560   -4.1750  -10.2002 O.2       1 <0>        -0.5642
     38 O4        -11.0309   -5.4249   -9.4534 O.3       1 <0>        -0.3576
     39 C28       -11.1719   -5.9643  -10.7691 C.3       1 <0>         0.1352
     40 C29        -9.8694   -6.6541  -11.1798 C.3       1 <0>        -0.1863
     41 C30       -12.3144   -6.9818  -10.7834 C.3       1 <0>        -0.1409
     42 C31       -11.4829   -4.8345  -11.7528 C.3       1 <0>        -0.1857
     43 O5         -3.1694   -2.0781   -0.9149 O.3       1 <0>        -0.5507
     44 O6         -0.8061   -1.0171   -3.5059 O.3       1 <0>        -0.5497
     45 H3          2.1355    0.8953   -0.0329 H         1 <0>         0.0551
     46 H4          0.7107    1.8126   -0.5774 H         1 <0>         0.0530
     47 H5          0.5814    0.7116    0.8152 H         1 <0>         0.0536
     48 H6          1.0733   -0.0779   -2.0906 H         1 <0>         0.0764
     49 H7          0.8624   -1.7880    0.4289 H         1 <0>         0.0535
     50 H8          0.9916   -2.4042   -1.2360 H         1 <0>         0.0546
     51 H9          2.3464   -1.5048   -0.5122 H         1 <0>         0.0548
     52 H10        -1.2394   -0.6877   -0.1966 H         1 <0>         0.0801
     53 H11        -1.2733    0.5676   -1.4581 H         1 <0>         0.0651
     54 H12        -2.7267   -2.4130   -4.2220 H         1 <0>         0.1184
     55 H13        -1.4641   -3.9648   -2.7216 H         1 <0>         0.0776
     56 H14        -2.9873   -4.3690   -1.8940 H         1 <0>         0.0669
     57 H15        -2.6507   -4.6671   -4.9014 H         1 <0>         0.0750
     58 H16        -4.5346   -5.9168   -2.8504 H         1 <0>         0.0555
     59 H17        -4.9540   -4.6108   -3.9847 H         1 <0>         0.0702
     60 H18        -5.6917   -6.8137   -4.8516 H         1 <0>         0.0563
     61 H19        -4.4366   -6.1042   -5.8954 H         1 <0>         0.0602
     62 H20        -3.9698   -8.1910   -3.7173 H         1 <0>         0.0589
     63 H21        -3.9869   -8.5052   -5.4692 H         1 <0>         0.0583
     64 H22        -1.6665   -8.2473   -4.6339 H         1 <0>         0.0597
     65 H23        -2.0860   -6.9413   -5.7682 H         1 <0>         0.0609
     66 H24        -0.9288   -6.0444   -3.7670 H         1 <0>         0.0601
     67 H25        -2.1840   -6.7539   -2.7232 H         1 <0>         0.0593
     68 H26        -5.1104   -2.9177   -2.5247 H         1 <0>         0.4051
     69 H27        -7.0927   -3.6471   -4.1644 H         1 <0>         0.1118
     70 H28        -6.8682   -1.5352   -2.8222 H         1 <0>         0.0854
     71 H29        -6.9352   -0.6051   -4.3384 H         1 <0>         0.0812
     72 H30       -11.6191   -1.6340   -2.5754 H         1 <0>         0.4171
     73 H31        -9.1905   -1.4784   -1.6901 H         1 <0>         0.1685
     74 H32       -11.6689   -1.7879   -5.1276 H         1 <0>         0.1966
     75 H33        -6.5300   -2.2561   -6.6696 H         1 <0>         0.4086
     76 H34        -7.9199   -3.3270   -8.4666 H         1 <0>         0.1075
     77 H35        -9.5181   -1.5629   -9.1888 H         1 <0>         0.0738
     78 H36       -10.0089   -1.3252   -7.4944 H         1 <0>         0.0801
     79 H37        -7.6019   -0.8030   -6.9409 H         1 <0>         0.0852
     80 H38        -6.0630   -0.3173   -8.8006 H         1 <0>         0.0567
     81 H39        -6.6192   -2.0054   -8.8967 H         1 <0>         0.0529
     82 H40        -7.3155   -0.7759   -9.9793 H         1 <0>         0.0589
     83 H41        -9.2567    0.9944   -7.3648 H         1 <0>         0.0537
     84 H42        -7.6430    1.4594   -7.9549 H         1 <0>         0.0531
     85 H43        -8.8902    0.9212   -9.1051 H         1 <0>         0.0521
     86 H44       -10.4847   -4.1706   -7.3269 H         1 <0>         0.4137
     87 H45        -9.6479   -7.4590  -10.4790 H         1 <0>         0.0586
     88 H46        -9.9770   -7.0655  -12.1835 H         1 <0>         0.0699
     89 H47        -9.0555   -5.9292  -11.1696 H         1 <0>         0.0882
     90 H48       -13.2423   -6.4904  -10.4908 H         1 <0>         0.0663
     91 H49       -12.4220   -7.3933  -11.7871 H         1 <0>         0.0805
     92 H50       -12.0929   -7.7868  -10.0826 H         1 <0>         0.0662
     93 H51       -10.6689   -4.1096  -11.7426 H         1 <0>         0.0885
     94 H52       -11.5904   -5.2459  -12.7565 H         1 <0>         0.0696
     95 H53       -12.4107   -4.3431  -11.4602 H         1 <0>         0.0588
     96 H54        -2.7740   -2.9137   -0.6311 H         1 <0>         0.3758
     97 H55        -1.2015   -0.1815   -3.7897 H         1 <0>         0.3761
@<TRIPOS>BOND
     1    1    2 1
     2    1   45 1
     3    1   46 1
     4    1   47 1
     5    2    3 1
     6    2    4 1
     7    2   48 1
     8    3   49 1
     9    3   50 1
    10    3   51 1
    11    4    5 1
    12    4   52 1
    13    4   53 1
    14    5    6 1
    15    5    7 1
    16    5   44 1
    17    7    8 1
    18    7    9 1
    19    7   43 1
    20    9   10 1
    21    9   17 1
    22    9   54 1
    23   10   11 1
    24   10   55 1
    25   10   56 1
    26   11   16 1
    27   11   12 1
    28   11   57 1
    29   12   13 1
    30   12   58 1
    31   12   59 1
    32   13   14 1
    33   13   60 1
    34   13   61 1
    35   14   15 1
    36   14   62 1
    37   14   63 1
    38   15   16 1
    39   15   64 1
    40   15   65 1
    41   16   66 1
    42   16   67 1
    43   17   18 am
    44   17   68 1
    45   18   19 2
    46   18   20 1
    47   20   21 1
    48   20   27 1
    49   20   69 1
    50   21   70 1
    51   21   71 1
    52   21   22 1
    53   22   23 2
    54   22   26 1
    55   23   24 1
    56   23   73 1
    57   24   25 1
    58   24   72 1
    59   25   74 1
    60   25   26 2
    61   27   28 am
    62   27   75 1
    63   28   29 2
    64   28   30 1
    65   30   31 1
    66   30   35 1
    67   30   76 1
    68   31   32 1
    69   31   77 1
    70   31   78 1
    71   32   33 1
    72   32   34 1
    73   32   79 1
    74   33   80 1
    75   33   81 1
    76   33   82 1
    77   34   83 1
    78   34   84 1
    79   34   85 1
    80   35   36 am
    81   35   86 1
    82   36   37 2
    83   36   38 1
    84   38   39 1
    85   39   40 1
    86   39   41 1
    87   39   42 1
    88   40   87 1
    89   40   88 1
    90   40   89 1
    91   41   90 1
    92   41   91 1
    93   41   92 1
    94   42   93 1
    95   42   94 1
    96   42   95 1
    97   43   96 1
    98   44   97 1
@<TRIPOS>MOLECULE
CHEMBL73216__20
   97    98     0     0     0
SMALL
USER_CHARGES

@<TRIPOS>ATOM
      1 C1          4.0588   -1.7444    1.4012 C.3       1 <0>        -0.1490
      2 C2          3.2370   -2.6066    2.3615 C.3       1 <0>        -0.0946
      3 C3          3.1452   -1.9103    3.7207 C.3       1 <0>        -0.1501
      4 C4          1.8301   -2.8036    1.7932 C.3       1 <0>        -0.1431
      5 C5          1.0484   -3.7664    2.6892 C.3       1 <0>         0.0756
      6 H1          1.0552   -3.3955    3.7142 H         1 <0>         0.1066
      7 C6         -0.3953   -3.8667    2.1927 C.3       1 <0>         0.0679
      8 H2         -0.4021   -4.2376    1.1678 H         1 <0>         0.1036
      9 C7         -1.1771   -4.8295    3.0887 C.3       1 <0>         0.1121
     10 C8         -1.2740   -4.2475    4.5004 C.3       1 <0>        -0.1336
     11 C9         -1.9287   -5.2711    5.4302 C.3       1 <0>        -0.0787
     12 C10        -3.4167   -5.3873    5.0937 C.3       1 <0>        -0.1251
     13 C11        -4.0714   -6.4109    6.0235 C.3       1 <0>        -0.1200
     14 C12        -3.9109   -5.9567    7.4757 C.3       1 <0>        -0.1188
     15 C13        -2.4229   -5.8405    7.8122 C.3       1 <0>        -0.1198
     16 C14        -1.7682   -4.8169    6.8824 C.3       1 <0>        -0.1136
     17 N1         -2.5242   -5.0180    2.5446 N.am      1 <0>        -0.7114
     18 C15        -2.9705   -6.2587    2.2651 C.2       1 <0>         0.5182
     19 O1         -2.2222   -7.2083    2.3612 O.2       1 <0>        -0.5249
     20 C16        -4.3993   -6.4659    1.8333 C.3       1 <0>         0.1307
     21 C17        -4.6625   -5.6800    0.5472 C.3       1 <0>        -0.0516
     22 C18        -6.1207   -5.7873    0.1825 C.2       1 <0>        -0.0133
     23 C19        -7.1229   -5.0161    0.6456 C.2       1 <0>        -0.0005
     24 N2         -8.2641   -5.4333    0.0775 N.2       1 <0>        -0.4844
     25 C20        -8.0071   -6.4337   -0.7201 C.2       1 <0>         0.1917
     26 N3         -6.6803   -6.6834   -0.6879 N.pl3     1 <0>        -0.5621
     27 N4         -4.6344   -7.8915    1.5911 N.am      1 <0>        -0.7110
     28 C21        -5.8803   -8.3956    1.6912 C.2       1 <0>         0.5112
     29 O2         -6.8216   -7.6535    1.8764 O.2       1 <0>        -0.4980
     30 C22        -6.1039   -9.8812    1.5730 C.3       1 <0>         0.1471
     31 C23        -6.1858  -10.2686    0.0951 C.3       1 <0>        -0.1237
     32 C24        -4.8663   -9.9210   -0.5971 C.3       1 <0>        -0.1065
     33 C25        -3.7532  -10.8190   -0.0536 C.3       1 <0>        -0.1546
     34 C26        -5.0081  -10.1403   -2.1047 C.3       1 <0>        -0.1473
     35 N5         -7.3563  -10.2414    2.2423 N.am      1 <0>        -0.6964
     36 C27        -7.5107  -11.4740    2.7650 C.2       1 <0>         0.6562
     37 O3         -6.5811  -12.2566    2.7608 O.2       1 <0>        -0.5632
     38 O4         -8.6949  -11.8383    3.2919 O.3       1 <0>        -0.3546
     39 C28        -8.7874  -13.1596    3.8283 C.3       1 <0>         0.1348
     40 C29        -7.7673  -13.3245    4.9566 C.3       1 <0>        -0.1866
     41 C30       -10.1968  -13.3896    4.3774 C.3       1 <0>        -0.1414
     42 C31        -8.4971  -14.1793    2.7252 C.3       1 <0>        -0.1858
     43 O5         -1.0047   -2.5748    2.2358 O.3       1 <0>        -0.5500
     44 O6          1.6578   -5.0582    2.6461 O.3       1 <0>        -0.5499
     45 H3          5.0610   -1.6041    1.8060 H         1 <0>         0.0551
     46 H4          4.1242   -2.2404    0.4328 H         1 <0>         0.0530
     47 H5          3.5765   -0.7743    1.2807 H         1 <0>         0.0539
     48 H6          3.7192   -3.5767    2.4820 H         1 <0>         0.0761
     49 H7          2.6629   -0.9403    3.6002 H         1 <0>         0.0539
     50 H8          2.5597   -2.5246    4.4048 H         1 <0>         0.0544
     51 H9          4.1474   -1.7700    4.1255 H         1 <0>         0.0550
     52 H10         1.3157   -1.8433    1.7558 H         1 <0>         0.0806
     53 H11         1.8992   -3.2182    0.7876 H         1 <0>         0.0648
     54 H12        -0.6626   -5.7897    3.1262 H         1 <0>         0.1202
     55 H13        -0.2745   -4.0119    4.8657 H         1 <0>         0.0798
     56 H14        -1.8763   -3.3392    4.4783 H         1 <0>         0.0698
     57 H15        -1.4494   -6.2410    5.2977 H         1 <0>         0.0712
     58 H16        -3.8961   -4.4173    5.2261 H         1 <0>         0.0597
     59 H17        -3.5311   -5.7108    4.0591 H         1 <0>         0.0695
     60 H18        -5.1315   -6.4937    5.7837 H         1 <0>         0.0581
     61 H19        -3.5921   -7.3809    5.8910 H         1 <0>         0.0580
     62 H20        -4.3902   -4.9868    7.6081 H         1 <0>         0.0606
     63 H21        -4.3774   -6.6860    8.1381 H         1 <0>         0.0589
     64 H22        -2.3086   -5.5170    8.8467 H         1 <0>         0.0608
     65 H23        -1.9436   -6.8105    7.6797 H         1 <0>         0.0603
     66 H24        -0.7082   -4.7341    7.1221 H         1 <0>         0.0607
     67 H25        -2.2475   -3.8470    7.0148 H         1 <0>         0.0612
     68 H26        -3.0949   -4.2500    2.3856 H         1 <0>         0.4066
     69 H27        -5.0704   -6.1151    2.6173 H         1 <0>         0.1225
     70 H28        -4.4027   -4.6327    0.7018 H         1 <0>         0.1011
     71 H29        -4.0550   -6.0897   -0.2597 H         1 <0>         0.0790
     72 H30        -6.2116   -7.3705   -1.1870 H         1 <0>         0.4093
     73 H31        -7.0250   -4.2041    1.3509 H         1 <0>         0.1601
     74 H32        -8.7345   -6.9707   -1.3108 H         1 <0>         0.1990
     75 H33        -3.8933   -8.4727    1.3588 H         1 <0>         0.4118
     76 H34        -5.2754  -10.4118    2.0423 H         1 <0>         0.1178
     77 H35        -6.3696  -11.3396    0.0099 H         1 <0>         0.0867
     78 H36        -7.0002   -9.7213   -0.3794 H         1 <0>         0.0721
     79 H37        -4.6184   -8.8774   -0.4035 H         1 <0>         0.0697
     80 H38        -3.6962  -10.7118    1.0297 H         1 <0>         0.0568
     81 H39        -3.9687  -11.8574   -0.3051 H         1 <0>         0.0638
     82 H40        -2.8016  -10.5275   -0.4981 H         1 <0>         0.0613
     83 H41        -5.8011   -9.5006   -2.4919 H         1 <0>         0.0519
     84 H42        -4.0681   -9.8927   -2.5978 H         1 <0>         0.0611
     85 H43        -5.2560  -11.1839   -2.2983 H         1 <0>         0.0616
     86 H44        -8.0743   -9.5927    2.3093 H         1 <0>         0.4165
     87 H45        -7.9741  -12.5980    5.7425 H         1 <0>         0.0594
     88 H46        -7.8379  -14.3323    5.3658 H         1 <0>         0.0711
     89 H47        -6.7632  -13.1606    4.5654 H         1 <0>         0.0873
     90 H48       -10.9236  -13.2721    3.5735 H         1 <0>         0.0672
     91 H49       -10.2674  -14.3974    4.7865 H         1 <0>         0.0816
     92 H50       -10.4037  -12.6631    5.1632 H         1 <0>         0.0672
     93 H51        -7.4930  -14.0154    2.3341 H         1 <0>         0.0874
     94 H52        -8.5677  -15.1871    3.1344 H         1 <0>         0.0709
     95 H53        -9.2238  -14.0618    1.9214 H         1 <0>         0.0594
     96 H54        -1.0334   -2.1828    3.1193 H         1 <0>         0.3760
     97 H55         1.6865   -5.4503    1.7627 H         1 <0>         0.3761
@<TRIPOS>BOND
     1    1    2 1
     2    1   45 1
     3    1   46 1
     4    1   47 1
     5    2    3 1
     6    2    4 1
     7    2   48 1
     8    3   49 1
     9    3   50 1
    10    3   51 1
    11    4    5 1
    12    4   52 1
    13    4   53 1
    14    5    6 1
    15    5    7 1
    16    5   44 1
    17    7    8 1
    18    7    9 1
    19    7   43 1
    20    9   10 1
    21    9   17 1
    22    9   54 1
    23   10   11 1
    24   10   55 1
    25   10   56 1
    26   11   16 1
    27   11   12 1
    28   11   57 1
    29   12   13 1
    30   12   58 1
    31   12   59 1
    32   13   14 1
    33   13   60 1
    34   13   61 1
    35   14   15 1
    36   14   62 1
    37   14   63 1
    38   15   16 1
    39   15   64 1
    40   15   65 1
    41   16   66 1
    42   16   67 1
    43   17   18 am
    44   17   68 1
    45   18   19 2
    46   18   20 1
    47   20   21 1
    48   20   27 1
    49   20   69 1
    50   21   70 1
    51   21   71 1
    52   21   22 1
    53   22   23 2
    54   22   26 1
    55   23   24 1
    56   23   73 1
    57   24   25 2
    58   25   74 1
    59   25   26 1
    60   26   72 1
    61   27   28 am
    62   27   75 1
    63   28   29 2
    64   28   30 1
    65   30   31 1
    66   30   35 1
    67   30   76 1
    68   31   32 1
    69   31   77 1
    70   31   78 1
    71   32   33 1
    72   32   34 1
    73   32   79 1
    74   33   80 1
    75   33   81 1
    76   33   82 1
    77   34   83 1
    78   34   84 1
    79   34   85 1
    80   35   36 am
    81   35   86 1
    82   36   37 2
    83   36   38 1
    84   38   39 1
    85   39   40 1
    86   39   41 1
    87   39   42 1
    88   40   87 1
    89   40   88 1
    90   40   89 1
    91   41   90 1
    92   41   91 1
    93   41   92 1
    94   42   93 1
    95   42   94 1
    96   42   95 1
    97   43   96 1
    98   44   97 1
@<TRIPOS>MOLECULE
CHEMBL73216__21
   98    99     0     0     0
SMALL
USER_CHARGES

@<TRIPOS>ATOM
      1 C1          2.7674    2.3973   -0.5557 C.3       1 <0>        -0.1500
      2 C2          1.6722    1.8806    0.3795 C.3       1 <0>        -0.0950
      3 C3          0.8558    0.8034   -0.3374 C.3       1 <0>        -0.1508
      4 C4          2.3128    1.2842    1.6344 C.3       1 <0>        -0.1421
      5 C5          1.2185    0.9018    2.6330 C.3       1 <0>         0.0748
      6 H1          0.5108    0.2246    2.1549 H         1 <0>         0.1079
      7 C6          1.8506    0.2088    3.8418 C.3       1 <0>         0.0688
      8 H2          2.5583    0.8861    4.3199 H         1 <0>         0.1031
      9 C7          0.7563   -0.1736    4.8404 C.3       1 <0>         0.1129
     10 C8         -0.1660   -1.2194    4.2106 C.3       1 <0>        -0.1349
     11 C9         -1.3094   -1.5384    5.1759 C.3       1 <0>        -0.0779
     12 C10        -0.7773   -2.3826    6.3357 C.3       1 <0>        -0.1200
     13 C11        -1.9207   -2.7016    7.3009 C.3       1 <0>        -0.1179
     14 C12        -3.0103   -3.4803    6.5612 C.3       1 <0>        -0.1199
     15 C13        -3.5424   -2.6362    5.4014 C.3       1 <0>        -0.1207
     16 C14        -2.3990   -2.3172    4.4362 C.3       1 <0>        -0.1156
     17 N1          1.3704   -0.7285    6.0491 N.am      1 <0>        -0.7087
     18 C15         1.0464   -0.2309    7.2590 C.2       1 <0>         0.5141
     19 O1          0.1739    0.6059    7.3566 O.2       1 <0>        -0.5077
     20 C16         1.7681   -0.7143    8.4905 C.3       1 <0>         0.1244
     21 C17         3.2625   -0.4153    8.3561 C.3       1 <0>        -0.0711
     22 C18         4.0006   -1.0069    9.5293 C.2       1 <0>         0.0416
     23 C19         4.4417   -2.2754    9.6287 C.2       1 <0>         0.0542
     24 N2          5.0536   -2.3874   10.8480 N.pl3     1 <0>        -0.4994
     25 C20         4.9651   -1.1827   11.4516 C.cat     1 <0>         0.3087
     26 N3          4.3385   -0.3606   10.6550 N.pl3     1 <0>        -0.4727
     27 N4          1.2365   -0.0263    9.6696 N.am      1 <0>        -0.7067
     28 C21         1.3292   -0.6021   10.8846 C.2       1 <0>         0.5205
     29 O2          1.9083   -1.6601   11.0117 O.2       1 <0>        -0.5363
     30 C22         0.7132    0.0687   12.0853 C.3       1 <0>         0.1464
     31 C23        -0.7825   -0.2494   12.1357 C.3       1 <0>        -0.1248
     32 C24        -1.4824    0.3989   10.9396 C.3       1 <0>        -0.1015
     33 C25        -2.9412   -0.0599   10.8921 C.3       1 <0>        -0.1464
     34 C26        -1.4310    1.9214   11.0822 C.3       1 <0>        -0.1509
     35 N5          1.3586   -0.4241   13.3046 N.am      1 <0>        -0.7054
     36 C27         1.3112    0.3080   14.4352 C.2       1 <0>         0.6522
     37 O3          0.8140    1.4166   14.4208 O.2       1 <0>        -0.5515
     38 O4          1.8149   -0.1890   15.5807 O.3       1 <0>        -0.3562
     39 C28         1.7309    0.6415   16.7405 C.3       1 <0>         0.1359
     40 C29         0.2632    0.9544   17.0385 C.3       1 <0>        -0.1887
     41 C30         2.3498   -0.0869   17.9352 C.3       1 <0>        -0.1424
     42 C31         2.4899    1.9461   16.4897 C.3       1 <0>        -0.1857
     43 O5          2.5353   -0.9692    3.4112 O.3       1 <0>        -0.5523
     44 O6          0.5338    2.0799    3.0636 O.3       1 <0>        -0.5483
     45 H3          3.4722    1.5935   -0.7689 H         1 <0>         0.0540
     46 H4          2.3173    2.7422   -1.4866 H         1 <0>         0.0573
     47 H5          3.2929    3.2241   -0.0780 H         1 <0>         0.0530
     48 H6          1.0174    2.7047    0.6624 H         1 <0>         0.0769
     49 H7          1.5106   -0.0208   -0.6203 H         1 <0>         0.0541
     50 H8          0.0756    0.4353    0.3288 H         1 <0>         0.0534
     51 H9          0.3994    1.2282   -1.2315 H         1 <0>         0.0571
     52 H10         2.8841    0.3963    1.3638 H         1 <0>         0.0804
     53 H11         2.9774    2.0197    2.0877 H         1 <0>         0.0644
     54 H12         0.1767    0.7120    5.1010 H         1 <0>         0.1217
     55 H13        -0.5753   -0.8290    3.2789 H         1 <0>         0.0826
     56 H14         0.4009   -2.1277    4.0061 H         1 <0>         0.0690
     57 H15        -1.7268   -0.6094    5.5643 H         1 <0>         0.0747
     58 H16        -0.3598   -3.3116    5.9473 H         1 <0>         0.0569
     59 H17        -0.0010   -1.8278    6.8627 H         1 <0>         0.0634
     60 H18        -1.5416   -3.3030    8.1272 H         1 <0>         0.0537
     61 H19        -2.3381   -1.7726    7.6893 H         1 <0>         0.0603
     62 H20        -2.5928   -4.4093    6.1728 H         1 <0>         0.0601
     63 H21        -3.8249   -3.7076    7.2489 H         1 <0>         0.0602
     64 H22        -4.3187   -3.1910    4.8745 H         1 <0>         0.0630
     65 H23        -3.9599   -1.7072    5.7898 H         1 <0>         0.0614
     66 H24        -2.7781   -1.7158    3.6099 H         1 <0>         0.0628
     67 H25        -1.9815   -3.2462    4.0478 H         1 <0>         0.0610
     68 H26         2.0103   -1.4541    5.9786 H         1 <0>         0.4050
     69 H27         1.6208   -1.7887    8.5996 H         1 <0>         0.1286
     70 H28         3.6390   -0.8534    7.4317 H         1 <0>         0.1281
     71 H29         3.4169    0.6635    8.3362 H         1 <0>         0.1068
     72 H30         5.4725   -3.1836   11.2108 H         1 <0>         0.4663
     73 H31         4.3332   -3.0546    8.8888 H         1 <0>         0.2225
     74 H32         5.3523   -0.9388   12.4299 H         1 <0>         0.2604
     75 H33         0.8179    0.8437    9.5758 H         1 <0>         0.4217
     76 H34         0.8530    1.1471   12.0106 H         1 <0>         0.1186
     77 H35        -0.9258   -1.3293   12.0990 H         1 <0>         0.0747
     78 H36        -1.2063    0.1421   13.0605 H         1 <0>         0.0899
     79 H37        -0.9784    0.1029   10.0195 H         1 <0>         0.0768
     80 H38        -3.4453    0.2360   11.8122 H         1 <0>         0.0584
     81 H39        -3.4398    0.4020   10.0400 H         1 <0>         0.0619
     82 H40        -2.9779   -1.1445   10.7905 H         1 <0>         0.0541
     83 H41        -0.3959    2.2573   11.0204 H         1 <0>         0.0473
     84 H42        -2.0106    2.3811   10.2818 H         1 <0>         0.0641
     85 H43        -1.8498    2.2103   12.0462 H         1 <0>         0.0631
     86 H44         1.8200   -1.2773   13.2983 H         1 <0>         0.4109
     87 H45        -0.2774    0.0250   17.2172 H         1 <0>         0.0614
     88 H46         0.1992    1.5879   17.9232 H         1 <0>         0.0751
     89 H47        -0.1777    1.4734   16.1874 H         1 <0>         0.0871
     90 H48         3.3954   -0.3099   17.7230 H         1 <0>         0.0660
     91 H49         2.2857    0.5465   18.8199 H         1 <0>         0.0854
     92 H50         1.8091   -1.0164   18.1139 H         1 <0>         0.0687
     93 H51         2.0490    2.4650   15.6385 H         1 <0>         0.0864
     94 H52         2.4258    2.5795   17.3744 H         1 <0>         0.0753
     95 H53         3.5355    1.7231   16.2774 H         1 <0>         0.0574
     96 H54         1.9658   -1.6182    2.9758 H         1 <0>         0.3793
     97 H55         1.1033    2.7289    3.4990 H         1 <0>         0.3754
     98 H56         4.1458    0.5704   10.8474 H         1 <0>         0.4582
@<TRIPOS>BOND
     1    1    2 1
     2    1   45 1
     3    1   46 1
     4    1   47 1
     5    2    3 1
     6    2    4 1
     7    2   48 1
     8    3   49 1
     9    3   50 1
    10    3   51 1
    11    4    5 1
    12    4   52 1
    13    4   53 1
    14    5    6 1
    15    5    7 1
    16    5   44 1
    17    7    8 1
    18    7    9 1
    19    7   43 1
    20    9   10 1
    21    9   17 1
    22    9   54 1
    23   10   11 1
    24   10   55 1
    25   10   56 1
    26   11   16 1
    27   11   12 1
    28   11   57 1
    29   12   13 1
    30   12   58 1
    31   12   59 1
    32   13   14 1
    33   13   60 1
    34   13   61 1
    35   14   15 1
    36   14   62 1
    37   14   63 1
    38   15   16 1
    39   15   64 1
    40   15   65 1
    41   16   66 1
    42   16   67 1
    43   17   18 am
    44   17   68 1
    45   18   19 2
    46   18   20 1
    47   20   21 1
    48   20   27 1
    49   20   69 1
    50   21   70 1
    51   21   71 1
    52   21   22 1
    53   22   23 2
    54   22   26 1
    55   23   24 1
    56   23   73 1
    57   24   25 1
    58   24   72 1
    59   25   74 1
    60   25   26 2
    61   26   98 1
    62   27   28 am
    63   27   75 1
    64   28   29 2
    65   28   30 1
    66   30   31 1
    67   30   35 1
    68   30   76 1
    69   31   32 1
    70   31   77 1
    71   31   78 1
    72   32   33 1
    73   32   34 1
    74   32   79 1
    75   33   80 1
    76   33   81 1
    77   33   82 1
    78   34   83 1
    79   34   84 1
    80   34   85 1
    81   35   36 am
    82   35   86 1
    83   36   37 2
    84   36   38 1
    85   38   39 1
    86   39   40 1
    87   39   41 1
    88   39   42 1
    89   40   87 1
    90   40   88 1
    91   40   89 1
    92   41   90 1
    93   41   91 1
    94   41   92 1
    95   42   93 1
    96   42   94 1
    97   42   95 1
    98   43   96 1
    99   44   97 1
@<TRIPOS>MOLECULE
CHEMBL73216__22
   97    98     0     0     0
SMALL
USER_CHARGES

@<TRIPOS>ATOM
      1 C1          1.1076   -1.1727   -4.0161 C.3       1 <0>        -0.1490
      2 C2          0.8506   -1.9871   -2.7466 C.3       1 <0>        -0.0946
      3 C3          1.3457   -1.2038   -1.5291 C.3       1 <0>        -0.1501
      4 C4         -0.6496   -2.2530   -2.6063 C.3       1 <0>        -0.1432
      5 C5         -0.8949   -3.1711   -1.4072 C.3       1 <0>         0.0755
      6 H1         -0.4460   -2.7325   -0.5160 H         1 <0>         0.1065
      7 C6         -2.4005   -3.3367   -1.1912 C.3       1 <0>         0.0676
      8 H2         -2.8493   -3.7753   -2.0824 H         1 <0>         0.1032
      9 C7         -2.6457   -4.2548    0.0079 C.3       1 <0>         0.1123
     10 C8         -2.1259   -3.5821    1.2800 C.3       1 <0>        -0.1333
     11 C9         -2.2109   -4.5661    2.4485 C.3       1 <0>        -0.0783
     12 C10        -3.6795   -4.8529    2.7678 C.3       1 <0>        -0.1270
     13 C11        -3.7645   -5.8369    3.9364 C.3       1 <0>        -0.1195
     14 C12        -3.0847   -5.2295    5.1651 C.3       1 <0>        -0.1192
     15 C13        -1.6161   -4.9427    4.8458 C.3       1 <0>        -0.1198
     16 C14        -1.5311   -3.9587    3.6772 C.3       1 <0>        -0.1139
     17 N1         -4.0821   -4.5094    0.1422 N.am      1 <0>        -0.7116
     18 C15        -4.5500   -5.7725    0.0945 C.2       1 <0>         0.5191
     19 O1         -3.7964   -6.6892   -0.1558 O.2       1 <0>        -0.5258
     20 C16        -6.0095   -6.0456    0.3520 C.3       1 <0>         0.1323
     21 C17        -6.8579   -5.2980   -0.6786 C.3       1 <0>        -0.0508
     22 C18        -8.3179   -5.4711   -0.3479 C.2       1 <0>        -0.0182
     23 C19        -9.0386   -4.7310    0.5161 C.2       1 <0>         0.0004
     24 N2        -10.2932   -5.2053    0.5227 N.2       1 <0>        -0.4852
     25 C20       -10.3774   -6.2112   -0.3045 C.2       1 <0>         0.1945
     26 N3         -9.1680   -6.4069   -0.8726 N.pl3     1 <0>        -0.5630
     27 N4         -6.2637   -7.4843    0.2427 N.am      1 <0>        -0.7098
     28 C21        -7.3075   -8.0355    0.8932 C.2       1 <0>         0.5084
     29 O2         -8.0363   -7.3405    1.5690 O.2       1 <0>        -0.5010
     30 C22        -7.5691   -9.5153    0.7807 C.3       1 <0>         0.1498
     31 C23        -6.3571  -10.2887    1.3042 C.3       1 <0>        -0.1251
     32 C24        -6.5703  -11.7864    1.0757 C.3       1 <0>        -0.0906
     33 C25        -6.6144  -12.0719   -0.4268 C.3       1 <0>        -0.1398
     34 C26        -5.4180  -12.5681    1.7097 C.3       1 <0>        -0.1487
     35 N5         -8.7506   -9.8641    1.5735 N.am      1 <0>        -0.6931
     36 C27        -9.4745  -10.9566    1.2593 C.2       1 <0>         0.6545
     37 O3         -9.1472  -11.6524    0.3184 O.2       1 <0>        -0.5559
     38 O4        -10.5604  -11.2771    1.9879 O.3       1 <0>        -0.3557
     39 C28       -11.2804  -12.4484    1.5984 C.3       1 <0>         0.1368
     40 C29       -10.3569  -13.6654    1.6798 C.3       1 <0>        -0.1863
     41 C30       -12.4728  -12.6493    2.5359 C.3       1 <0>        -0.1421
     42 C31       -11.7826  -12.2844    0.1625 C.3       1 <0>        -0.1848
     43 O5         -2.9892   -2.0588   -0.9410 O.3       1 <0>        -0.5500
     44 O6         -0.3062   -4.4489   -1.6574 O.3       1 <0>        -0.5500
     45 H3          2.1764   -0.9832   -4.1160 H         1 <0>         0.0551
     46 H4          0.7549   -1.7307   -4.8834 H         1 <0>         0.0530
     47 H5          0.5748   -0.2239   -3.9532 H         1 <0>         0.0539
     48 H6          1.3835   -2.9359   -2.8095 H         1 <0>         0.0761
     49 H7          0.8128   -0.2550   -1.4663 H         1 <0>         0.0539
     50 H8          1.1626   -1.7840   -0.6247 H         1 <0>         0.0544
     51 H9          2.4144   -1.0143   -1.6291 H         1 <0>         0.0550
     52 H10        -1.1733   -1.3092   -2.4544 H         1 <0>         0.0805
     53 H11        -1.0199   -2.7323   -3.5126 H         1 <0>         0.0648
     54 H12        -2.1220   -5.1986   -0.1440 H         1 <0>         0.1203
     55 H13        -1.0887   -3.2805    1.1337 H         1 <0>         0.0797
     56 H14        -2.7321   -2.7034    1.5001 H         1 <0>         0.0700
     57 H15        -1.7097   -5.4954    2.1781 H         1 <0>         0.0708
     58 H16        -4.1808   -3.9235    3.0382 H         1 <0>         0.0591
     59 H17        -4.1638   -5.2856    1.8925 H         1 <0>         0.0722
     60 H18        -4.8108   -6.0413    4.1638 H         1 <0>         0.0582
     61 H19        -3.2633   -6.7663    3.6660 H         1 <0>         0.0581
     62 H20        -3.5859   -4.3002    5.4355 H         1 <0>         0.0605
     63 H21        -3.1453   -5.9305    5.9975 H         1 <0>         0.0588
     64 H22        -1.1318   -4.5100    5.7211 H         1 <0>         0.0607
     65 H23        -1.1148   -5.8720    4.5754 H         1 <0>         0.0603
     66 H24        -0.4848   -3.7543    3.4497 H         1 <0>         0.0605
     67 H25        -2.0323   -3.0293    3.9476 H         1 <0>         0.0613
     68 H26        -4.6965   -3.7690    0.2656 H         1 <0>         0.4065
     69 H27        -6.2715   -5.7055    1.3539 H         1 <0>         0.1234
     70 H28        -6.6039   -4.2382   -0.6582 H         1 <0>         0.1011
     71 H29        -6.6602   -5.7000   -1.6723 H         1 <0>         0.0795
     72 H30        -8.9433   -7.0850   -1.5288 H         1 <0>         0.4110
     73 H31        -8.6707   -3.9011    1.1012 H         1 <0>         0.1610
     74 H32       -11.2676   -6.7891   -0.5042 H         1 <0>         0.1989
     75 H33        -5.6808   -8.0401   -0.2979 H         1 <0>         0.4111
     76 H34        -7.7425   -9.7753   -0.2636 H         1 <0>         0.1172
     77 H35        -5.4621   -9.9639    0.7737 H         1 <0>         0.0806
     78 H36        -6.2370  -10.0973    2.3705 H         1 <0>         0.0722
     79 H37        -7.5117  -12.0932    1.5316 H         1 <0>         0.0774
     80 H38        -7.4353  -11.5150   -0.8785 H         1 <0>         0.0708
     81 H39        -5.6730  -11.7651   -0.8827 H         1 <0>         0.0424
     82 H40        -6.7662  -13.1389   -0.5896 H         1 <0>         0.0507
     83 H41        -5.3866  -12.3648    2.7801 H         1 <0>         0.0504
     84 H42        -5.5698  -13.6352    1.5469 H         1 <0>         0.0550
     85 H43        -4.4766  -12.2614    1.2538 H         1 <0>         0.0538
     86 H44        -9.0119   -9.3086    2.3246 H         1 <0>         0.4153
     87 H45        -9.9991  -13.7823    2.7028 H         1 <0>         0.0583
     88 H46       -10.9061  -14.5588    1.3827 H         1 <0>         0.0694
     89 H47        -9.5074  -13.5223    1.0119 H         1 <0>         0.0897
     90 H48       -13.1307  -11.7823    2.4779 H         1 <0>         0.0670
     91 H49       -13.0220  -13.5427    2.2388 H         1 <0>         0.0807
     92 H50       -12.1150  -12.7662    3.5588 H         1 <0>         0.0665
     93 H51       -10.9332  -12.1412   -0.5054 H         1 <0>         0.0880
     94 H52       -12.3319  -13.1778   -0.1346 H         1 <0>         0.0694
     95 H53       -12.4406  -11.4173    0.1045 H         1 <0>         0.0583
     96 H54        -2.6367   -1.6094   -0.1608 H         1 <0>         0.3758
     97 H55        -0.6586   -4.8984   -2.4376 H         1 <0>         0.3763
@<TRIPOS>BOND
     1    1    2 1
     2    1   45 1
     3    1   46 1
     4    1   47 1
     5    2    3 1
     6    2    4 1
     7    2   48 1
     8    3   49 1
     9    3   50 1
    10    3   51 1
    11    4    5 1
    12    4   52 1
    13    4   53 1
    14    5    6 1
    15    5    7 1
    16    5   44 1
    17    7    8 1
    18    7    9 1
    19    7   43 1
    20    9   10 1
    21    9   17 1
    22    9   54 1
    23   10   11 1
    24   10   55 1
    25   10   56 1
    26   11   16 1
    27   11   12 1
    28   11   57 1
    29   12   13 1
    30   12   58 1
    31   12   59 1
    32   13   14 1
    33   13   60 1
    34   13   61 1
    35   14   15 1
    36   14   62 1
    37   14   63 1
    38   15   16 1
    39   15   64 1
    40   15   65 1
    41   16   66 1
    42   16   67 1
    43   17   18 am
    44   17   68 1
    45   18   19 2
    46   18   20 1
    47   20   21 1
    48   20   27 1
    49   20   69 1
    50   21   70 1
    51   21   71 1
    52   21   22 1
    53   22   23 2
    54   22   26 1
    55   23   24 1
    56   23   73 1
    57   24   25 2
    58   25   74 1
    59   25   26 1
    60   26   72 1
    61   27   28 am
    62   27   75 1
    63   28   29 2
    64   28   30 1
    65   30   31 1
    66   30   35 1
    67   30   76 1
    68   31   32 1
    69   31   77 1
    70   31   78 1
    71   32   33 1
    72   32   34 1
    73   32   79 1
    74   33   80 1
    75   33   81 1
    76   33   82 1
    77   34   83 1
    78   34   84 1
    79   34   85 1
    80   35   36 am
    81   35   86 1
    82   36   37 2
    83   36   38 1
    84   38   39 1
    85   39   40 1
    86   39   41 1
    87   39   42 1
    88   40   87 1
    89   40   88 1
    90   40   89 1
    91   41   90 1
    92   41   91 1
    93   41   92 1
    94   42   93 1
    95   42   94 1
    96   42   95 1
    97   43   96 1
    98   44   97 1
@<TRIPOS>MOLECULE
CHEMBL73216__23
   97    98     0     0     0
SMALL
USER_CHARGES

@<TRIPOS>ATOM
      1 C1          0.0359    3.9697   -1.0646 C.3       1 <0>        -0.1490
      2 C2         -0.4037    2.8275   -1.9828 C.3       1 <0>        -0.0945
      3 C3          0.6627    1.7304   -1.9783 C.3       1 <0>        -0.1504
      4 C4         -1.7298    2.2519   -1.4818 C.3       1 <0>        -0.1432
      5 C5         -2.2107    1.1654   -2.4457 C.3       1 <0>         0.0752
      6 H1         -1.4227    0.4245   -2.5803 H         1 <0>         0.1066
      7 C6         -3.4553    0.4872   -1.8697 C.3       1 <0>         0.0672
      8 H2         -4.2434    1.2281   -1.7350 H         1 <0>         0.1036
      9 C7         -3.9363   -0.5994   -2.8335 C.3       1 <0>         0.1126
     10 C8         -2.8804   -1.7027   -2.9261 C.3       1 <0>        -0.1322
     11 C9         -3.2870   -2.7086   -4.0049 C.3       1 <0>        -0.0773
     12 C10        -4.5523   -3.4467   -3.5631 C.3       1 <0>        -0.1271
     13 C11        -4.9589   -4.4525   -4.6419 C.3       1 <0>        -0.1191
     14 C12        -3.8273   -5.4607   -4.8517 C.3       1 <0>        -0.1191
     15 C13        -2.5621   -4.7226   -5.2936 C.3       1 <0>        -0.1195
     16 C14        -2.1554   -3.7167   -4.2148 C.3       1 <0>        -0.1139
     17 N1         -5.1939   -1.1671   -2.3412 N.am      1 <0>        -0.7137
     18 C15        -6.3032   -1.1104   -3.1045 C.2       1 <0>         0.5173
     19 O1         -6.2403   -0.6740   -4.2343 O.2       1 <0>        -0.5250
     20 C16        -7.6218   -1.5895   -2.5541 C.3       1 <0>         0.1422
     21 C17        -7.9844   -0.7705   -1.3137 C.3       1 <0>        -0.0397
     22 C18        -9.2389   -1.3285   -0.6924 C.2       1 <0>         0.0025
     23 C19        -9.3778   -1.7313    0.5851 C.2       1 <0>        -0.0520
     24 N2        -10.6688   -2.1639    0.7259 N.pl3     1 <0>        -0.5707
     25 C20       -11.2743   -2.0103   -0.4714 C.2       1 <0>         0.1900
     26 N3        -10.4145   -1.5055   -1.3134 N.2       1 <0>        -0.4509
     27 N4         -8.6641   -1.4242   -3.5703 N.am      1 <0>        -0.7083
     28 C21        -9.7654   -2.2005   -3.5384 C.2       1 <0>         0.5454
     29 O2         -9.8935   -3.0359   -2.6686 O.2       1 <0>        -0.5133
     30 C22       -10.8376   -2.0305   -4.5837 C.3       1 <0>         0.1559
     31 C23       -10.2437   -2.2881   -5.9700 C.3       1 <0>        -0.1267
     32 C24       -11.2981   -1.9947   -7.0391 C.3       1 <0>        -0.0902
     33 C25       -11.6450   -0.5047   -7.0178 C.3       1 <0>        -0.1398
     34 C26       -10.7467   -2.3703   -8.4160 C.3       1 <0>        -0.1484
     35 N5        -11.9209   -2.9840   -4.3316 N.am      1 <0>        -0.6874
     36 C27       -13.1669   -2.7203   -4.7724 C.2       1 <0>         0.6530
     37 O3        -13.3918   -1.6916   -5.3788 O.2       1 <0>        -0.5559
     38 O4        -14.1625   -3.5966   -4.5407 O.3       1 <0>        -0.3596
     39 C28       -15.4579   -3.2526   -5.0364 C.3       1 <0>         0.1374
     40 C29       -15.3963   -3.0928   -6.5567 C.3       1 <0>        -0.1863
     41 C30       -16.4511   -4.3605   -4.6798 C.3       1 <0>        -0.1413
     42 C31       -15.9132   -1.9363   -4.4032 C.3       1 <0>        -0.1846
     43 O5         -3.1356   -0.1028   -0.6080 O.3       1 <0>        -0.5504
     44 O6         -2.5305    1.7553   -3.7073 O.3       1 <0>        -0.5500
     45 H3          1.0210    4.3227   -1.3698 H         1 <0>         0.0551
     46 H4         -0.6808    4.7880   -1.1340 H         1 <0>         0.0530
     47 H5          0.0806    3.6122   -0.0359 H         1 <0>         0.0537
     48 H6         -0.5317    3.2056   -2.9971 H         1 <0>         0.0758
     49 H7          0.7908    1.3524   -0.9640 H         1 <0>         0.0536
     50 H8          0.3496    0.9167   -2.6324 H         1 <0>         0.0549
     51 H9          1.6074    2.1404   -2.3352 H         1 <0>         0.0548
     52 H10        -1.5876    1.8214   -0.4906 H         1 <0>         0.0803
     53 H11        -2.4741    3.0465   -1.4294 H         1 <0>         0.0650
     54 H12        -4.0954   -0.1650   -3.8205 H         1 <0>         0.1202
     55 H13        -1.9170   -1.2629   -3.1840 H         1 <0>         0.0781
     56 H14        -2.8018   -2.2120   -1.9656 H         1 <0>         0.0679
     57 H15        -3.4815   -2.1811   -4.9387 H         1 <0>         0.0720
     58 H16        -4.3578   -3.9742   -2.6292 H         1 <0>         0.0553
     59 H17        -5.3584   -2.7285   -3.4135 H         1 <0>         0.0767
     60 H18        -5.8603   -4.9784   -4.3271 H         1 <0>         0.0567
     61 H19        -5.1534   -3.9250   -5.5757 H         1 <0>         0.0597
     62 H20        -3.6328   -5.9882   -3.9179 H         1 <0>         0.0589
     63 H21        -4.1170   -6.1773   -5.6203 H         1 <0>         0.0583
     64 H22        -1.7559   -5.4408   -5.4431 H         1 <0>         0.0598
     65 H23        -2.7566   -4.1950   -6.2274 H         1 <0>         0.0608
     66 H24        -1.2541   -3.1909   -4.5296 H         1 <0>         0.0600
     67 H25        -1.9609   -4.2442   -3.2810 H         1 <0>         0.0599
     68 H26        -5.2282   -1.5837   -1.4659 H         1 <0>         0.4051
     69 H27        -7.5417   -2.6424   -2.2837 H         1 <0>         0.1120
     70 H28        -7.1683   -0.8218   -0.5930 H         1 <0>         0.0859
     71 H29        -8.1516    0.2679   -1.6000 H         1 <0>         0.0810
     72 H30       -11.0731   -2.5152    1.5345 H         1 <0>         0.4173
     73 H31        -8.6167   -1.7162    1.3512 H         1 <0>         0.1694
     74 H32       -12.3012   -2.2600   -0.6940 H         1 <0>         0.1958
     75 H33        -8.5616   -0.7561   -4.2660 H         1 <0>         0.4070
     76 H34       -11.2301   -1.0146   -4.5396 H         1 <0>         0.1187
     77 H35        -9.3815   -1.6389   -6.1223 H         1 <0>         0.0795
     78 H36        -9.9317   -3.3299   -6.0438 H         1 <0>         0.0685
     79 H37       -12.1950   -2.5795   -6.8350 H         1 <0>         0.0762
     80 H38       -12.3962   -0.2956   -7.7795 H         1 <0>         0.0483
     81 H39       -12.0379   -0.2370   -6.0369 H         1 <0>         0.0734
     82 H40       -10.7481    0.0801   -7.2220 H         1 <0>         0.0418
     83 H41       -10.4996   -3.4318   -8.4311 H         1 <0>         0.0491
     84 H42       -11.4979   -2.1613   -9.1776 H         1 <0>         0.0533
     85 H43        -9.8498   -1.7855   -8.6201 H         1 <0>         0.0533
     86 H44       -11.7413   -3.8052   -3.8475 H         1 <0>         0.4116
     87 H45       -15.0719   -4.0306   -7.0078 H         1 <0>         0.0576
     88 H46       -16.3844   -2.8305   -6.9348 H         1 <0>         0.0680
     89 H47       -14.6888   -2.3036   -6.8108 H         1 <0>         0.0908
     90 H48       -16.4949   -4.4743   -3.5966 H         1 <0>         0.0653
     91 H49       -17.4392   -4.0981   -5.0578 H         1 <0>         0.0796
     92 H50       -16.1267   -5.2983   -5.1308 H         1 <0>         0.0657
     93 H51       -15.2057   -1.1470   -4.6573 H         1 <0>         0.0899
     94 H52       -16.9013   -1.6740   -4.7813 H         1 <0>         0.0677
     95 H53       -15.9571   -2.0501   -3.3201 H         1 <0>         0.0570
     96 H54        -2.4400   -0.7731   -0.6523 H         1 <0>         0.3750
     97 H55        -3.2260    2.4257   -3.6630 H         1 <0>         0.3764
@<TRIPOS>BOND
     1    1    2 1
     2    1   45 1
     3    1   46 1
     4    1   47 1
     5    2    3 1
     6    2    4 1
     7    2   48 1
     8    3   49 1
     9    3   50 1
    10    3   51 1
    11    4    5 1
    12    4   52 1
    13    4   53 1
    14    5    6 1
    15    5    7 1
    16    5   44 1
    17    7    8 1
    18    7    9 1
    19    7   43 1
    20    9   10 1
    21    9   17 1
    22    9   54 1
    23   10   11 1
    24   10   55 1
    25   10   56 1
    26   11   16 1
    27   11   12 1
    28   11   57 1
    29   12   13 1
    30   12   58 1
    31   12   59 1
    32   13   14 1
    33   13   60 1
    34   13   61 1
    35   14   15 1
    36   14   62 1
    37   14   63 1
    38   15   16 1
    39   15   64 1
    40   15   65 1
    41   16   66 1
    42   16   67 1
    43   17   18 am
    44   17   68 1
    45   18   19 2
    46   18   20 1
    47   20   21 1
    48   20   27 1
    49   20   69 1
    50   21   70 1
    51   21   71 1
    52   21   22 1
    53   22   23 2
    54   22   26 1
    55   23   24 1
    56   23   73 1
    57   24   25 1
    58   24   72 1
    59   25   74 1
    60   25   26 2
    61   27   28 am
    62   27   75 1
    63   28   29 2
    64   28   30 1
    65   30   31 1
    66   30   35 1
    67   30   76 1
    68   31   32 1
    69   31   77 1
    70   31   78 1
    71   32   33 1
    72   32   34 1
    73   32   79 1
    74   33   80 1
    75   33   81 1
    76   33   82 1
    77   34   83 1
    78   34   84 1
    79   34   85 1
    80   35   36 am
    81   35   86 1
    82   36   37 2
    83   36   38 1
    84   38   39 1
    85   39   40 1
    86   39   41 1
    87   39   42 1
    88   40   87 1
    89   40   88 1
    90   40   89 1
    91   41   90 1
    92   41   91 1
    93   41   92 1
    94   42   93 1
    95   42   94 1
    96   42   95 1
    97   43   96 1
    98   44   97 1
@<TRIPOS>MOLECULE
CHEMBL30755
   72    76     0     0     0
SMALL
USER_CHARGES

@<TRIPOS>ATOM
      1 C1         -0.0167    1.3784    0.0096 C.ar      1 <0>        -0.1563
      2 C2          1.1698    2.0883    0.0021 C.ar      1 <0>        -0.0795
      3 C3          2.3773    1.4175   -0.0134 C.ar      1 <0>        -0.1523
      4 C4          2.3989    0.0304   -0.0210 C.ar      1 <0>         0.1265
      5 C5          1.2070   -0.6796   -0.0130 C.ar      1 <0>        -0.2100
      6 C6          0.0021   -0.0041    0.0020 C.ar      1 <0>        -0.0802
      7 O1          3.5855   -0.6319   -0.0368 O.3       1 <0>        -0.3163
      8 C7          3.5315   -2.0598   -0.0438 C.3       1 <0>         0.0606
      9 C8          4.9536   -2.6239   -0.0615 C.3       1 <0>        -0.1162
     10 C9          4.8957   -4.1528   -0.0690 C.3       1 <0>        -0.1169
     11 C10         6.3178   -4.7169   -0.0867 C.3       1 <0>         0.0604
     12 O2          6.2638   -6.1449   -0.0937 O.3       1 <0>        -0.3121
     13 C11         7.4504   -6.8071   -0.1095 C.ar      1 <0>         0.1450
     14 C12         8.6423   -6.0972   -0.1121 C.ar      1 <0>        -0.2036
     15 C13         9.8473   -6.7727   -0.1277 C.ar      1 <0>        -0.0555
     16 C14         9.8660   -8.1552   -0.1410 C.ar      1 <0>        -0.1276
     17 C15         8.6794   -8.8650   -0.1388 C.ar      1 <0>        -0.0784
     18 C16         7.4719   -8.1943   -0.1171 C.ar      1 <0>        -0.1492
     19 C17        11.1818   -8.8895   -0.1584 C.3       1 <0>        -0.0475
     20 H1         12.0007   -8.1702   -0.1581 H         1 <0>         0.1034
     21 C18        11.2855   -9.7841    1.0802 C.3       1 <0>        -0.1394
     22 C19        12.5872  -10.5859    1.0161 C.3       1 <0>        -0.0100
     23 N1         12.5941  -11.4186   -0.1927 N.4       1 <0>        -0.4994
     24 C20        12.5673  -10.5645   -1.3861 C.3       1 <0>        -0.0392
     25 C21        11.2657   -9.7603   -1.4154 C.3       1 <0>         0.0778
     26 H2         10.4172  -10.4441   -1.4418 H         1 <0>         0.0856
     27 O3         11.2440   -8.9266   -2.5758 O.3       1 <0>        -0.3426
     28 C22        10.6556   -9.5426   -3.7231 C.3       1 <0>         0.1002
     29 C23        10.6857   -8.5791   -4.8815 C.ar      1 <0>        -0.0982
     30 C24         9.6152   -7.7085   -5.0781 C.ar      1 <0>        -0.1000
     31 C25         9.6106   -6.8264   -6.1145 C.ar      1 <0>        -0.1002
     32 C26        10.7003   -6.7898   -7.0013 C.ar      1 <0>        -0.0433
     33 C27        10.7316   -5.8925   -8.0824 C.ar      1 <0>        -0.1085
     34 C28        11.8039   -5.8852   -8.9205 C.ar      1 <0>        -0.1071
     35 C29        12.8745   -6.7556   -8.7237 C.ar      1 <0>        -0.1107
     36 C30        12.8788   -7.6380   -7.6876 C.ar      1 <0>        -0.1075
     37 C31        11.7889   -7.6748   -6.8010 C.ar      1 <0>        -0.0570
     38 C32        11.7602   -8.5682   -5.7166 C.ar      1 <0>        -0.0772
     39 H3         -0.9596    1.9047    0.0260 H         1 <0>         0.1257
     40 H4          1.1525    3.1682    0.0080 H         1 <0>         0.1311
     41 H5          3.3038    1.9724   -0.0200 H         1 <0>         0.1306
     42 H6          1.2211   -1.7595   -0.0193 H         1 <0>         0.1263
     43 H7         -0.9260   -0.5563    0.0082 H         1 <0>         0.1258
     44 H8          3.0134   -2.4083    0.8497 H         1 <0>         0.0649
     45 H9          2.9951   -2.3988   -0.9302 H         1 <0>         0.0648
     46 H10         5.4716   -2.2755   -0.9550 H         1 <0>         0.0790
     47 H11         5.4899   -2.2850    0.8248 H         1 <0>         0.0791
     48 H12         4.3777   -4.5012    0.8245 H         1 <0>         0.0802
     49 H13         4.3594   -4.4918   -0.9554 H         1 <0>         0.0800
     50 H14         6.8358   -4.3685   -0.9802 H         1 <0>         0.0673
     51 H15         6.8542   -4.3780    0.7997 H         1 <0>         0.0674
     52 H16         8.6282   -5.0173   -0.1025 H         1 <0>         0.1320
     53 H17        10.7754   -6.2205   -0.1298 H         1 <0>         0.1258
     54 H18         8.6967   -9.9448   -0.1496 H         1 <0>         0.1212
     55 H19         6.5454   -8.7492   -0.1109 H         1 <0>         0.1336
     56 H20        11.2831   -9.1652    1.9774 H         1 <0>         0.1223
     57 H21        10.4374  -10.4684    1.1070 H         1 <0>         0.0930
     58 H22        13.4345   -9.9008    0.9896 H         1 <0>         0.1342
     59 H23        12.6642  -11.2238    1.8966 H         1 <0>         0.1389
     60 H24        13.4288  -11.9854   -0.2046 H         1 <0>         0.4353
     61 H25        13.4151   -9.8798   -1.3614 H         1 <0>         0.1411
     62 H26        12.6297  -11.1865   -2.2790 H         1 <0>         0.1340
     63 H27        11.2177  -10.4398   -3.9822 H         1 <0>         0.0606
     64 H28         9.6230   -9.8121   -3.5014 H         1 <0>         0.0684
     65 H29         8.7765   -7.7345   -4.3981 H         1 <0>         0.1224
     66 H30         8.7738   -6.1582   -6.2549 H         1 <0>         0.1309
     67 H31         9.9090   -5.2125   -8.2476 H         1 <0>         0.1307
     68 H32        11.8253   -5.1949   -9.7508 H         1 <0>         0.1281
     69 H33        13.7131   -6.7296   -9.4037 H         1 <0>         0.1274
     70 H34        13.7152   -8.3067   -7.5476 H         1 <0>         0.1276
     71 H35        12.5847   -9.2454   -5.5491 H         1 <0>         0.1251
     72 H36        11.7827  -12.0184   -0.1913 H         1 <0>         0.4276
@<TRIPOS>BOND
     1    1    6 ar
     2    1    2 ar
     3    1   39 1
     4    2    3 ar
     5    2   40 1
     6    3    4 ar
     7    3   41 1
     8    4    5 ar
     9    4    7 1
    10    5    6 ar
    11    5   42 1
    12    6   43 1
    13    7    8 1
    14    8    9 1
    15    8   44 1
    16    8   45 1
    17    9   10 1
    18    9   46 1
    19    9   47 1
    20   10   11 1
    21   10   48 1
    22   10   49 1
    23   11   12 1
    24   11   50 1
    25   11   51 1
    26   12   13 1
    27   13   18 ar
    28   13   14 ar
    29   14   15 ar
    30   14   52 1
    31   15   16 ar
    32   15   53 1
    33   16   17 ar
    34   16   19 1
    35   17   18 ar
    36   17   54 1
    37   18   55 1
    38   19   20 1
    39   19   25 1
    40   19   21 1
    41   21   22 1
    42   21   56 1
    43   21   57 1
    44   22   23 1
    45   22   58 1
    46   22   59 1
    47   23   24 1
    48   23   60 1
    49   23   72 1
    50   24   25 1
    51   24   61 1
    52   24   62 1
    53   25   26 1
    54   25   27 1
    55   27   28 1
    56   28   29 1
    57   28   63 1
    58   28   64 1
    59   29   38 ar
    60   29   30 ar
    61   30   31 ar
    62   30   65 1
    63   31   32 ar
    64   31   66 1
    65   32   37 ar
    66   32   33 ar
    67   33   34 ar
    68   33   67 1
    69   34   35 ar
    70   34   68 1
    71   35   36 ar
    72   35   69 1
    73   36   37 ar
    74   36   70 1
    75   37   38 ar
    76   38   71 1
@<TRIPOS>MOLECULE
CHEMBL440654
   75    79     0     0     0
SMALL
USER_CHARGES

@<TRIPOS>ATOM
      1 C1         -0.0167    1.3781    0.0096 C.ar      1 <0>        -0.1118
      2 C2          1.1709    2.0855    0.0021 C.ar      1 <0>        -0.1228
      3 C3          2.3773    1.4107   -0.0130 C.ar      1 <0>        -0.0987
      4 C4          2.3960    0.0285   -0.0201 C.ar      1 <0>        -0.0954
      5 C5          1.2084   -0.6789   -0.0117 C.ar      1 <0>        -0.0989
      6 C6          0.0021   -0.0041    0.0020 C.ar      1 <0>        -0.1230
      7 C7          3.7112   -0.7071   -0.0376 C.3       1 <0>         0.1045
      8 O1          4.1410   -0.9464    1.3041 O.3       1 <0>        -0.3800
      9 C8          5.3853   -1.6423    1.4004 C.3       1 <0>         0.0645
     10 C9          5.7451   -1.8423    2.8740 C.3       1 <0>        -0.1174
     11 C10         7.0774   -2.5874    2.9771 C.3       1 <0>         0.0656
     12 O2          7.4134   -2.7742    4.3535 O.3       1 <0>        -0.3800
     13 C11         8.6473   -3.4642    4.5621 C.3       1 <0>         0.0979
     14 C12         8.9005   -3.6046    6.0410 C.ar      1 <0>        -0.0773
     15 C13         9.5962   -2.6214    6.7195 C.ar      1 <0>        -0.0898
     16 C14         9.8285   -2.7502    8.0761 C.ar      1 <0>        -0.1005
     17 C15         9.3648   -3.8619    8.7543 C.ar      1 <0>        -0.0797
     18 C16         8.6683   -4.8446    8.0760 C.ar      1 <0>        -0.1222
     19 C17         8.4323   -4.7138    6.7202 C.ar      1 <0>        -0.0928
     20 C18         9.6189   -4.0027   10.2330 C.3       1 <0>        -0.0541
     21 H1         10.1783   -3.1383   10.5906 H         1 <0>         0.1053
     22 C19         8.2827   -4.0912   10.9760 C.3       1 <0>        -0.1393
     23 C20         8.5480   -4.3137   12.4666 C.3       1 <0>        -0.0098
     24 N1          9.2968   -5.5623   12.6529 N.4       1 <0>        -0.4995
     25 C21        10.6090   -5.4578   12.0034 C.3       1 <0>        -0.0389
     26 C22        10.4247   -5.2783   10.4949 C.3       1 <0>         0.0785
     27 H2          9.8890   -6.1369   10.0901 H         1 <0>         0.0862
     28 O3         11.7034   -5.1726    9.8656 O.3       1 <0>        -0.3428
     29 C23        12.2510   -6.4247    9.4481 C.3       1 <0>         0.1003
     30 C24        13.5926   -6.1956    8.8013 C.ar      1 <0>        -0.0986
     31 C25        13.6622   -5.9625    7.4289 C.ar      1 <0>        -0.1000
     32 C26        14.8578   -5.7523    6.8135 C.ar      1 <0>        -0.1001
     33 C27        16.0418   -5.7693    7.5704 C.ar      1 <0>        -0.0433
     34 C28        17.2947   -5.5559    6.9705 C.ar      1 <0>        -0.1086
     35 C29        18.4202   -5.5792    7.7352 C.ar      1 <0>        -0.1070
     36 C30        18.3506   -5.8119    9.1076 C.ar      1 <0>        -0.1107
     37 C31        17.1550   -6.0226    9.7228 C.ar      1 <0>        -0.1074
     38 C32        15.9710   -6.0059    8.9659 C.ar      1 <0>        -0.0570
     39 C33        14.7177   -6.2138    9.5668 C.ar      1 <0>        -0.0770
     40 H3         -0.9591    1.9053    0.0259 H         1 <0>         0.1245
     41 H4          1.1563    3.1654    0.0076 H         1 <0>         0.1251
     42 H5          3.3051    1.9634   -0.0196 H         1 <0>         0.1226
     43 H6          1.2231   -1.7588   -0.0176 H         1 <0>         0.1224
     44 H7         -0.9258   -0.5567    0.0082 H         1 <0>         0.1249
     45 H8          3.5884   -1.6586   -0.5549 H         1 <0>         0.0595
     46 H9          4.4573   -0.1052   -0.5563 H         1 <0>         0.0597
     47 H10         5.2973   -2.6133    0.9129 H         1 <0>         0.0521
     48 H11         6.1662   -1.0598    0.9116 H         1 <0>         0.0524
     49 H12         5.8332   -0.8714    3.3615 H         1 <0>         0.0803
     50 H13         4.9642   -2.4248    3.3629 H         1 <0>         0.0798
     51 H14         6.9894   -3.5584    2.4896 H         1 <0>         0.0536
     52 H15         7.8583   -2.0049    2.4883 H         1 <0>         0.0541
     53 H16         8.5918   -4.4533    4.1075 H         1 <0>         0.0609
     54 H17         9.4608   -2.8999    4.1061 H         1 <0>         0.0618
     55 H18         9.9586   -1.7529    6.1896 H         1 <0>         0.1279
     56 H19        10.3727   -1.9824    8.6060 H         1 <0>         0.1253
     57 H20         8.3062   -5.7133    8.6058 H         1 <0>         0.1165
     58 H21         7.8849   -5.4797    6.1910 H         1 <0>         0.1261
     59 H22         7.7282   -3.1627   10.8397 H         1 <0>         0.1232
     60 H23         7.7013   -4.9244   10.5815 H         1 <0>         0.0936
     61 H24         9.1293   -3.4798   12.8601 H         1 <0>         0.1347
     62 H25         7.5988   -4.3770   12.9986 H         1 <0>         0.1396
     63 H26         9.4235   -5.7333   13.6392 H         1 <0>         0.4355
     64 H27        11.1463   -4.5996   12.4069 H         1 <0>         0.1415
     65 H28        11.1813   -6.3658   12.1935 H         1 <0>         0.1344
     66 H29        12.3716   -7.0755   10.3142 H         1 <0>         0.0607
     67 H30        11.5776   -6.8949    8.7314 H         1 <0>         0.0683
     68 H31        12.7538   -5.9489    6.8450 H         1 <0>         0.1226
     69 H32        14.8964   -5.5737    5.7491 H         1 <0>         0.1311
     70 H33        17.3640   -5.3747    5.9080 H         1 <0>         0.1308
     71 H34        19.3818   -5.4152    7.2716 H         1 <0>         0.1282
     72 H35        19.2590   -5.8257    9.6916 H         1 <0>         0.1274
     73 H36        17.1164   -6.2021   10.7871 H         1 <0>         0.1276
     74 H37        14.6481   -6.3910   10.6299 H         1 <0>         0.1250
     75 H38         8.7806   -6.3271   12.2446 H         1 <0>         0.4277
@<TRIPOS>BOND
     1    1    6 ar
     2    1    2 ar
     3    1   40 1
     4    2    3 ar
     5    2   41 1
     6    3    4 ar
     7    3   42 1
     8    4    5 ar
     9    4    7 1
    10    5    6 ar
    11    5   43 1
    12    6   44 1
    13    7    8 1
    14    7   45 1
    15    7   46 1
    16    8    9 1
    17    9   10 1
    18    9   47 1
    19    9   48 1
    20   10   11 1
    21   10   49 1
    22   10   50 1
    23   11   12 1
    24   11   51 1
    25   11   52 1
    26   12   13 1
    27   13   14 1
    28   13   53 1
    29   13   54 1
    30   14   19 ar
    31   14   15 ar
    32   15   16 ar
    33   15   55 1
    34   16   17 ar
    35   16   56 1
    36   17   18 ar
    37   17   20 1
    38   18   19 ar
    39   18   57 1
    40   19   58 1
    41   20   21 1
    42   20   26 1
    43   20   22 1
    44   22   23 1
    45   22   59 1
    46   22   60 1
    47   23   24 1
    48   23   61 1
    49   23   62 1
    50   24   25 1
    51   24   63 1
    52   24   75 1
    53   25   26 1
    54   25   64 1
    55   25   65 1
    56   26   27 1
    57   26   28 1
    58   28   29 1
    59   29   30 1
    60   29   66 1
    61   29   67 1
    62   30   39 ar
    63   30   31 ar
    64   31   32 ar
    65   31   68 1
    66   32   33 ar
    67   32   69 1
    68   33   38 ar
    69   33   34 ar
    70   34   35 ar
    71   34   70 1
    72   35   36 ar
    73   35   71 1
    74   36   37 ar
    75   36   72 1
    76   37   38 ar
    77   37   73 1
    78   38   39 ar
    79   39   74 1
@<TRIPOS>MOLECULE
CHEMBL368813
   75    77     0     0     0
SMALL
USER_CHARGES

@<TRIPOS>ATOM
      1 C1         -1.4920   -0.2812   -0.1162 C.3       1 <0>        -0.1520
      2 C2          0.0170   -0.0910    0.0506 C.3       1 <0>        -0.0920
      3 C3          0.4970   -0.8718    1.2757 C.3       1 <0>        -0.1558
      4 C4          0.7370   -0.6066   -1.1970 C.3       1 <0>        -0.1199
      5 C5          2.2304   -0.2918   -1.0907 C.3       1 <0>         0.0740
      6 H1          2.6270   -0.7186   -0.1695 H         1 <0>         0.1294
      7 C6          2.9543   -0.8853   -2.2717 C.2       1 <0>         0.3337
      8 O1          3.5683   -0.1692   -3.0257 O.2       1 <0>        -0.4496
      9 N1          2.4237    1.1604   -1.0789 N.am      1 <0>        -0.7035
     10 C7          3.5233    1.6892   -0.5064 C.2       1 <0>         0.5166
     11 O2          4.3528    0.9629   -0.0011 O.2       1 <0>        -0.5158
     12 C8          3.7222    3.1829   -0.4943 C.3       1 <0>         0.1310
     13 C9          3.7677    3.7031   -1.9324 C.3       1 <0>        -0.0700
     14 C10         3.8431    5.2082   -1.9200 C.2       1 <0>         0.0390
     15 C11         2.7978    6.0522   -1.8273 C.2       1 <0>         0.0538
     16 N2          3.3101    7.3213   -1.8515 N.pl3     1 <0>        -0.5002
     17 H2          2.8041    8.1473   -1.8013 H         1 <0>         0.4663
     18 C12         4.6516    7.2085   -1.9582 C.cat     1 <0>         0.3110
     19 N3          4.9635    5.9418   -1.9936 N.pl3     1 <0>        -0.4733
     20 N4          4.9826    3.5023    0.1807 N.am      1 <0>        -0.7074
     21 C13         5.1507    4.7080    0.7590 C.2       1 <0>         0.5154
     22 O3          4.2584    5.5286    0.7207 O.2       1 <0>        -0.5326
     23 C14         6.4473    5.0366    1.4533 C.3       1 <0>         0.1551
     24 C15         6.6809    4.0438    2.5937 C.3       1 <0>        -0.0912
     25 C16         8.0335    4.2948    3.2091 C.ar      1 <0>        -0.0774
     26 C17         9.1488    3.6439    2.7158 C.ar      1 <0>        -0.1026
     27 C18        10.3895    3.8742    3.2802 C.ar      1 <0>        -0.1102
     28 C19        10.5149    4.7557    4.3376 C.ar      1 <0>        -0.1108
     29 C20         9.3997    5.4073    4.8303 C.ar      1 <0>        -0.1133
     30 C21         8.1597    5.1803    4.2631 C.ar      1 <0>        -0.1081
     31 N5          6.3802    6.3960    1.9953 N.am      1 <0>        -0.7000
     32 C22         7.5133    7.0964    2.2002 C.2       1 <0>         0.6478
     33 O4          8.5905    6.6004    1.9354 O.2       1 <0>        -0.5425
     34 O5          7.4516    8.3457    2.6983 O.3       1 <0>        -0.3582
     35 C23         8.6916    9.0297    2.8899 C.3       1 <0>         0.1333
     36 C24         8.4263   10.4033    3.4501 C.ar      1 <0>        -0.1047
     37 C25         8.2282   11.4718    2.5957 C.ar      1 <0>        -0.0956
     38 C26         7.9849   12.7318    3.1096 C.ar      1 <0>        -0.1231
     39 C27         7.9391   12.9232    4.4779 C.ar      1 <0>        -0.1038
     40 C28         8.1363   11.8545    5.3323 C.ar      1 <0>        -0.1205
     41 C29         8.3754   10.5937    4.8183 C.ar      1 <0>        -0.0922
     42 H3         -1.8486    0.3433   -0.9353 H         1 <0>         0.0555
     43 H4         -1.7041   -1.3271   -0.3379 H         1 <0>         0.0600
     44 H5         -1.9983    0.0047    0.8057 H         1 <0>         0.0596
     45 H6          0.2370    0.9680    0.1855 H         1 <0>         0.0689
     46 H7          0.2770   -1.9308    1.1408 H         1 <0>         0.0614
     47 H8          1.5720   -0.7363    1.3946 H         1 <0>         0.0548
     48 H9         -0.0159   -0.5045    2.1646 H         1 <0>         0.0589
     49 H10         0.5978   -1.6847   -1.2774 H         1 <0>         0.0953
     50 H11         0.3252   -0.1202   -2.0813 H         1 <0>         0.0771
     51 H12         2.9239   -1.9511   -2.4438 H         1 <0>         0.1110
     52 H13         1.7603    1.7412   -1.4830 H         1 <0>         0.4051
     53 H14         2.8958    3.6552    0.0370 H         1 <0>         0.1303
     54 H15         4.6454    3.2995   -2.4372 H         1 <0>         0.1094
     55 H16         2.8678    3.3887   -2.4611 H         1 <0>         0.1268
     56 H17         1.7555    5.7800   -1.7493 H         1 <0>         0.2229
     57 H18         5.3508    8.0304   -2.0027 H         1 <0>         0.2606
     58 H19         5.6962    2.8460    0.2113 H         1 <0>         0.4215
     59 H20         7.2685    4.9700    0.7397 H         1 <0>         0.1216
     60 H21         5.9077    4.1720    3.3512 H         1 <0>         0.0852
     61 H22         6.6424    3.0267    2.2037 H         1 <0>         0.0921
     62 H23         9.0508    2.9552    1.8897 H         1 <0>         0.1160
     63 H24        11.2607    3.3651    2.8953 H         1 <0>         0.1206
     64 H25        11.4841    4.9351    4.7791 H         1 <0>         0.1202
     65 H26         9.4977    6.0957    5.6567 H         1 <0>         0.1172
     66 H27         7.2890    5.6921    4.6456 H         1 <0>         0.1098
     67 H28         5.5203    6.7919    2.2067 H         1 <0>         0.4141
     68 H29         9.3131    8.4670    3.5865 H         1 <0>         0.0800
     69 H30         9.2078    9.1205    1.9342 H         1 <0>         0.0766
     70 H31         8.2640   11.3222    1.5267 H         1 <0>         0.1216
     71 H32         7.8308   13.5667    2.4421 H         1 <0>         0.1268
     72 H33         7.7497   13.9077    4.8794 H         1 <0>         0.1275
     73 H34         8.1008   12.0041    6.4013 H         1 <0>         0.1284
     74 H35         8.5257    9.7580    5.4858 H         1 <0>         0.1246
     75 H36         5.8635    5.5869   -2.0640 H         1 <0>         0.4589
@<TRIPOS>BOND
     1    1    2 1
     2    1   42 1
     3    1   43 1
     4    1   44 1
     5    2    3 1
     6    2    4 1
     7    2   45 1
     8    3   46 1
     9    3   47 1
    10    3   48 1
    11    4    5 1
    12    4   49 1
    13    4   50 1
    14    5    6 1
    15    5    7 1
    16    5    9 1
    17    7    8 2
    18    7   51 1
    19    9   10 am
    20    9   52 1
    21   10   11 2
    22   10   12 1
    23   12   13 1
    24   12   20 1
    25   12   53 1
    26   13   14 1
    27   13   54 1
    28   13   55 1
    29   14   19 1
    30   14   15 2
    31   15   16 1
    32   15   56 1
    33   16   17 1
    34   16   18 1
    35   18   19 2
    36   18   57 1
    37   19   75 1
    38   20   21 am
    39   20   58 1
    40   21   22 2
    41   21   23 1
    42   23   24 1
    43   23   31 1
    44   23   59 1
    45   24   25 1
    46   24   60 1
    47   24   61 1
    48   25   30 ar
    49   25   26 ar
    50   26   27 ar
    51   26   62 1
    52   27   28 ar
    53   27   63 1
    54   28   29 ar
    55   28   64 1
    56   29   30 ar
    57   29   65 1
    58   30   66 1
    59   31   32 am
    60   31   67 1
    61   32   33 2
    62   32   34 1
    63   34   35 1
    64   35   36 1
    65   35   68 1
    66   35   69 1
    67   36   41 ar
    68   36   37 ar
    69   37   38 ar
    70   37   70 1
    71   38   39 ar
    72   38   71 1
    73   39   40 ar
    74   39   72 1
    75   40   41 ar
    76   40   73 1
    77   41   74 1
@<TRIPOS>MOLECULE
CHEMBL368813__1
   74    76     0     0     0
SMALL
USER_CHARGES

@<TRIPOS>ATOM
      1 C1         -0.0187    1.5258    0.0104 C.3       1 <0>        -0.1498
      2 C2          0.0021   -0.0041    0.0020 C.3       1 <0>        -0.0944
      3 C3          0.7421   -0.5109    1.2415 C.3       1 <0>        -0.1538
      4 C4         -1.4333   -0.5336    0.0129 C.3       1 <0>        -0.1178
      5 C5         -1.4157   -2.0577   -0.1212 C.3       1 <0>         0.0746
      6 H1         -0.7891   -2.4841    0.6622 H         1 <0>         0.1267
      7 C6         -2.8192   -2.5900    0.0125 C.2       1 <0>         0.3289
      8 O1         -3.3176   -3.2130   -0.8939 O.2       1 <0>        -0.4427
      9 N1         -0.8765   -2.4263   -1.4325 N.am      1 <0>        -0.7083
     10 C7         -0.2982   -3.6308   -1.6090 C.2       1 <0>         0.5200
     11 O2         -0.2242   -4.4096   -0.6822 O.2       1 <0>        -0.5259
     12 C8          0.2565   -4.0101   -2.9579 C.3       1 <0>         0.1396
     13 C9         -0.8664   -3.9833   -3.9969 C.3       1 <0>        -0.0492
     14 C10        -0.2907   -4.2419   -5.3654 C.2       1 <0>        -0.0178
     15 C11        -0.0497   -5.4449   -5.9207 C.2       1 <0>        -0.0029
     16 N2          0.4611   -5.2423   -7.1442 N.2       1 <0>        -0.4830
     17 H2          0.0262   -2.3369   -6.1781 H         1 <0>         0.4144
     18 C12         0.5458   -3.9595   -7.3682 C.2       1 <0>         0.1911
     19 N3          0.0821   -3.2993   -6.2852 N.pl3     1 <0>        -0.5602
     20 N4          0.8270   -5.3577   -2.8901 N.am      1 <0>        -0.7084
     21 C13         1.7936   -5.7246   -3.7546 C.2       1 <0>         0.5198
     22 O3          2.1912   -4.9391   -4.5888 O.2       1 <0>        -0.5077
     23 C14         2.3805   -7.1108   -3.6848 C.3       1 <0>         0.1604
     24 C15         3.0134   -7.3280   -2.3088 C.3       1 <0>        -0.0922
     25 C16         3.4910   -8.7528   -2.1949 C.ar      1 <0>        -0.0677
     26 C17         2.6423   -9.7295   -1.7085 C.ar      1 <0>        -0.1022
     27 C18         3.0804  -11.0364   -1.6039 C.ar      1 <0>        -0.1120
     28 C19         4.3671  -11.3667   -1.9862 C.ar      1 <0>        -0.1170
     29 C20         5.2156  -10.3901   -2.4734 C.ar      1 <0>        -0.1151
     30 C21         4.7760   -9.0840   -2.5820 C.ar      1 <0>        -0.1077
     31 N5          3.4040   -7.2606   -4.7222 N.am      1 <0>        -0.6904
     32 C22         3.7072   -8.4846   -5.1980 C.2       1 <0>         0.6535
     33 O4          3.1316   -9.4639   -4.7665 O.2       1 <0>        -0.5514
     34 O5          4.6478   -8.6223   -6.1514 O.3       1 <0>        -0.3584
     35 C23         4.9182   -9.9487   -6.6092 C.3       1 <0>         0.1322
     36 C24         5.9903   -9.9061   -7.6674 C.ar      1 <0>        -0.0984
     37 C25         5.6433   -9.7601   -8.9975 C.ar      1 <0>        -0.0925
     38 C26         6.6267   -9.7210   -9.9682 C.ar      1 <0>        -0.1231
     39 C27         7.9573   -9.8274   -9.6087 C.ar      1 <0>        -0.1087
     40 C28         8.3044   -9.9724   -8.2785 C.ar      1 <0>        -0.1243
     41 C29         7.3212  -10.0073   -7.3075 C.ar      1 <0>        -0.0938
     42 H3          1.0039    1.9031    0.0027 H         1 <0>         0.0578
     43 H4         -0.5459    1.8868   -0.8726 H         1 <0>         0.0552
     44 H5         -0.5289    1.8773    0.9072 H         1 <0>         0.0578
     45 H6          0.5123   -0.3556   -0.8948 H         1 <0>         0.0714
     46 H7          0.7568   -1.6008    1.2356 H         1 <0>         0.0566
     47 H8          1.7647   -0.1336    1.2338 H         1 <0>         0.0574
     48 H9          0.2319   -0.1594    2.1383 H         1 <0>         0.0589
     49 H10        -1.9156   -0.2570    0.9504 H         1 <0>         0.0915
     50 H11        -1.9862   -0.1019   -0.8214 H         1 <0>         0.0755
     51 H12        -3.3792   -2.4143    0.9191 H         1 <0>         0.1057
     52 H13        -0.9356   -1.8035   -2.1738 H         1 <0>         0.4043
     53 H14         1.0331   -3.3007   -3.2439 H         1 <0>         0.1158
     54 H15        -1.5995   -4.7542   -3.7595 H         1 <0>         0.0984
     55 H16        -1.3495   -3.0063   -3.9847 H         1 <0>         0.0837
     56 H17        -0.2352   -6.4046   -5.4613 H         1 <0>         0.1526
     57 H18         0.9213   -3.5017   -8.2714 H         1 <0>         0.2025
     58 H19         0.5090   -5.9859   -2.2229 H         1 <0>         0.4127
     59 H20         1.5926   -7.8473   -3.8427 H         1 <0>         0.1192
     60 H21         3.8585   -6.6506   -2.1866 H         1 <0>         0.0821
     61 H22         2.2736   -7.1297   -1.5333 H         1 <0>         0.0911
     62 H23         1.6370   -9.4714   -1.4098 H         1 <0>         0.1169
     63 H24         2.4175  -11.7993   -1.2232 H         1 <0>         0.1177
     64 H25         4.7097  -12.3876   -1.9038 H         1 <0>         0.1162
     65 H26         6.2210  -10.6481   -2.7717 H         1 <0>         0.1142
     66 H27         5.4377   -8.3218   -2.9662 H         1 <0>         0.1100
     67 H28         3.8635   -6.4789   -5.0667 H         1 <0>         0.4141
     68 H29         5.2574  -10.5597   -5.7728 H         1 <0>         0.0767
     69 H30         4.0098  -10.3802   -7.0296 H         1 <0>         0.0762
     70 H31         4.6037   -9.6770   -9.2783 H         1 <0>         0.1251
     71 H32         6.3555   -9.6077  -11.0074 H         1 <0>         0.1257
     72 H33         8.7256   -9.7976  -10.3671 H         1 <0>         0.1243
     73 H34         9.3439  -10.0559   -7.9977 H         1 <0>         0.1251
     74 H35         7.5926  -10.1168   -6.2679 H         1 <0>         0.1234
@<TRIPOS>BOND
     1    1    2 1
     2    1   42 1
     3    1   43 1
     4    1   44 1
     5    2    3 1
     6    2    4 1
     7    2   45 1
     8    3   46 1
     9    3   47 1
    10    3   48 1
    11    4    5 1
    12    4   49 1
    13    4   50 1
    14    5    6 1
    15    5    7 1
    16    5    9 1
    17    7    8 2
    18    7   51 1
    19    9   10 am
    20    9   52 1
    21   10   11 2
    22   10   12 1
    23   12   13 1
    24   12   20 1
    25   12   53 1
    26   13   54 1
    27   13   55 1
    28   13   14 1
    29   14   15 2
    30   14   19 1
    31   15   16 1
    32   15   56 1
    33   16   18 2
    34   17   19 1
    35   18   57 1
    36   18   19 1
    37   20   21 am
    38   20   58 1
    39   21   22 2
    40   21   23 1
    41   23   24 1
    42   23   31 1
    43   23   59 1
    44   24   25 1
    45   24   60 1
    46   24   61 1
    47   25   30 ar
    48   25   26 ar
    49   26   27 ar
    50   26   62 1
    51   27   28 ar
    52   27   63 1
    53   28   29 ar
    54   28   64 1
    55   29   30 ar
    56   29   65 1
    57   30   66 1
    58   31   32 am
    59   31   67 1
    60   32   33 2
    61   32   34 1
    62   34   35 1
    63   35   36 1
    64   35   68 1
    65   35   69 1
    66   36   41 ar
    67   36   37 ar
    68   37   38 ar
    69   37   70 1
    70   38   39 ar
    71   38   71 1
    72   39   40 ar
    73   39   72 1
    74   40   41 ar
    75   40   73 1
    76   41   74 1
@<TRIPOS>MOLECULE
CHEMBL368813__2
   74    76     0     0     0
SMALL
USER_CHARGES

@<TRIPOS>ATOM
      1 C1         -0.0187    1.5258    0.0104 C.3       1 <0>        -0.1493
      2 C2          0.0021   -0.0041    0.0020 C.3       1 <0>        -0.0953
      3 C3          0.7421   -0.5109    1.2415 C.3       1 <0>        -0.1531
      4 C4         -1.4333   -0.5336    0.0129 C.3       1 <0>        -0.1175
      5 C5         -1.4157   -2.0577   -0.1212 C.3       1 <0>         0.0749
      6 H1         -0.7891   -2.4841    0.6622 H         1 <0>         0.1254
      7 C6         -2.8192   -2.5900    0.0125 C.2       1 <0>         0.3290
      8 O1         -3.3176   -3.2130   -0.8939 O.2       1 <0>        -0.4431
      9 N1         -0.8765   -2.4263   -1.4325 N.am      1 <0>        -0.7077
     10 C7         -0.2982   -3.6308   -1.6090 C.2       1 <0>         0.5203
     11 O2         -0.2242   -4.4096   -0.6822 O.2       1 <0>        -0.5338
     12 C8          0.2565   -4.0101   -2.9579 C.3       1 <0>         0.1420
     13 C9         -0.8664   -3.9833   -3.9969 C.3       1 <0>        -0.0375
     14 C10        -0.2907   -4.2419   -5.3654 C.2       1 <0>         0.0072
     15 C11        -0.6883   -5.2013   -6.2228 C.2       1 <0>        -0.0571
     16 N2          0.0937   -5.0829   -7.3399 N.pl3     1 <0>        -0.5705
     17 H2          0.0469   -5.6346   -8.1364 H         1 <0>         0.4165
     18 C12         0.9425   -4.0546   -7.1262 C.2       1 <0>         0.1938
     19 N3          0.7035   -3.5533   -5.9453 N.2       1 <0>        -0.4528
     20 N4          0.8270   -5.3577   -2.8901 N.am      1 <0>        -0.7068
     21 C13         1.7936   -5.7246   -3.7546 C.2       1 <0>         0.5100
     22 O3          2.1912   -4.9391   -4.5888 O.2       1 <0>        -0.4946
     23 C14         2.3805   -7.1108   -3.6848 C.3       1 <0>         0.1588
     24 C15         3.0134   -7.3280   -2.3088 C.3       1 <0>        -0.0921
     25 C16         3.4910   -8.7528   -2.1949 C.ar      1 <0>        -0.0669
     26 C17         2.6423   -9.7295   -1.7085 C.ar      1 <0>        -0.1026
     27 C18         3.0804  -11.0364   -1.6039 C.ar      1 <0>        -0.1122
     28 C19         4.3671  -11.3667   -1.9862 C.ar      1 <0>        -0.1176
     29 C20         5.2156  -10.3901   -2.4734 C.ar      1 <0>        -0.1154
     30 C21         4.7760   -9.0840   -2.5820 C.ar      1 <0>        -0.1084
     31 N5          3.4040   -7.2606   -4.7222 N.am      1 <0>        -0.6917
     32 C22         3.7072   -8.4846   -5.1980 C.2       1 <0>         0.6501
     33 O4          3.1316   -9.4639   -4.7665 O.2       1 <0>        -0.5510
     34 O5          4.6478   -8.6223   -6.1514 O.3       1 <0>        -0.3597
     35 C23         4.9182   -9.9487   -6.6092 C.3       1 <0>         0.1322
     36 C24         5.9903   -9.9061   -7.6674 C.ar      1 <0>        -0.0990
     37 C25         5.6433   -9.7601   -8.9975 C.ar      1 <0>        -0.0943
     38 C26         6.6267   -9.7210   -9.9682 C.ar      1 <0>        -0.1233
     39 C27         7.9573   -9.8274   -9.6087 C.ar      1 <0>        -0.1079
     40 C28         8.3044   -9.9724   -8.2785 C.ar      1 <0>        -0.1229
     41 C29         7.3212  -10.0073   -7.3075 C.ar      1 <0>        -0.0930
     42 H3          1.0039    1.9031    0.0027 H         1 <0>         0.0575
     43 H4         -0.5459    1.8868   -0.8726 H         1 <0>         0.0558
     44 H5         -0.5289    1.8773    0.9072 H         1 <0>         0.0565
     45 H6          0.5123   -0.3556   -0.8948 H         1 <0>         0.0739
     46 H7          0.2319   -0.1594    2.1383 H         1 <0>         0.0577
     47 H8          0.7568   -1.6008    1.2356 H         1 <0>         0.0564
     48 H9          1.7647   -0.1336    1.2338 H         1 <0>         0.0570
     49 H10        -1.9156   -0.2570    0.9504 H         1 <0>         0.0899
     50 H11        -1.9862   -0.1019   -0.8214 H         1 <0>         0.0759
     51 H12        -3.3792   -2.4143    0.9191 H         1 <0>         0.1040
     52 H13        -0.9356   -1.8035   -2.1738 H         1 <0>         0.4071
     53 H14         1.0331   -3.3007   -3.2439 H         1 <0>         0.1258
     54 H15        -1.5995   -4.7542   -3.7595 H         1 <0>         0.0824
     55 H16        -1.3495   -3.0063   -3.9847 H         1 <0>         0.0864
     56 H17        -1.4731   -5.9252   -6.0600 H         1 <0>         0.1666
     57 H18         1.6923   -3.7027   -7.8194 H         1 <0>         0.1999
     58 H19         0.5090   -5.9859   -2.2229 H         1 <0>         0.4089
     59 H20         1.5926   -7.8473   -3.8427 H         1 <0>         0.1155
     60 H21         3.8585   -6.6506   -2.1866 H         1 <0>         0.0828
     61 H22         2.2736   -7.1297   -1.5333 H         1 <0>         0.0916
     62 H23         1.6370   -9.4714   -1.4098 H         1 <0>         0.1167
     63 H24         2.4175  -11.7993   -1.2232 H         1 <0>         0.1176
     64 H25         4.7097  -12.3876   -1.9038 H         1 <0>         0.1161
     65 H26         6.2210  -10.6481   -2.7717 H         1 <0>         0.1141
     66 H27         5.4377   -8.3218   -2.9662 H         1 <0>         0.1100
     67 H28         3.8635   -6.4789   -5.0667 H         1 <0>         0.4144
     68 H29         5.2574  -10.5597   -5.7728 H         1 <0>         0.0776
     69 H30         4.0098  -10.3802   -7.0296 H         1 <0>         0.0747
     70 H31         4.6037   -9.6770   -9.2783 H         1 <0>         0.1230
     71 H32         6.3555   -9.6077  -11.0074 H         1 <0>         0.1256
     72 H33         8.7256   -9.7976  -10.3671 H         1 <0>         0.1250
     73 H34         9.3439  -10.0559   -7.9977 H         1 <0>         0.1261
     74 H35         7.5926  -10.1168   -6.2679 H         1 <0>         0.1241
@<TRIPOS>BOND
     1    1    2 1
     2    1   42 1
     3    1   43 1
     4    1   44 1
     5    2    3 1
     6    2    4 1
     7    2   45 1
     8    3   46 1
     9    3   47 1
    10    3   48 1
    11    4    5 1
    12    4   49 1
    13    4   50 1
    14    5    6 1
    15    5    7 1
    16    5    9 1
    17    7    8 2
    18    7   51 1
    19    9   10 am
    20    9   52 1
    21   10   11 2
    22   10   12 1
    23   12   13 1
    24   12   20 1
    25   12   53 1
    26   13   14 1
    27   13   54 1
    28   13   55 1
    29   14   19 1
    30   14   15 2
    31   15   16 1
    32   15   56 1
    33   16   17 1
    34   16   18 1
    35   18   19 2
    36   18   57 1
    37   20   21 am
    38   20   58 1
    39   21   22 2
    40   21   23 1
    41   23   24 1
    42   23   31 1
    43   23   59 1
    44   24   25 1
    45   24   60 1
    46   24   61 1
    47   25   30 ar
    48   25   26 ar
    49   26   27 ar
    50   26   62 1
    51   27   28 ar
    52   27   63 1
    53   28   29 ar
    54   28   64 1
    55   29   30 ar
    56   29   65 1
    57   30   66 1
    58   31   32 am
    59   31   67 1
    60   32   33 2
    61   32   34 1
    62   34   35 1
    63   35   36 1
    64   35   68 1
    65   35   69 1
    66   36   41 ar
    67   36   37 ar
    68   37   38 ar
    69   37   70 1
    70   38   39 ar
    71   38   71 1
    72   39   40 ar
    73   39   72 1
    74   40   41 ar
    75   40   73 1
    76   41   74 1
@<TRIPOS>MOLECULE
CHEMBL368813__3
   75    77     0     0     0
SMALL
USER_CHARGES

@<TRIPOS>ATOM
      1 C1         -1.4920   -0.2812   -0.1162 C.3       1 <0>        -0.1519
      2 C2          0.0170   -0.0910    0.0506 C.3       1 <0>        -0.0921
      3 C3          0.4970   -0.8718    1.2757 C.3       1 <0>        -0.1559
      4 C4          0.7370   -0.6066   -1.1970 C.3       1 <0>        -0.1198
      5 C5          2.2304   -0.2918   -1.0907 C.3       1 <0>         0.0738
      6 H1          2.6270   -0.7186   -0.1695 H         1 <0>         0.1293
      7 C6          2.9543   -0.8853   -2.2717 C.2       1 <0>         0.3339
      8 O1          3.5683   -0.1692   -3.0257 O.2       1 <0>        -0.4497
      9 N1          2.4237    1.1604   -1.0789 N.am      1 <0>        -0.7035
     10 C7          3.5233    1.6892   -0.5064 C.2       1 <0>         0.5164
     11 O2          4.3528    0.9629   -0.0011 O.2       1 <0>        -0.5157
     12 C8          3.7222    3.1829   -0.4943 C.3       1 <0>         0.1307
     13 C9          3.7677    3.7031   -1.9324 C.3       1 <0>        -0.0700
     14 C10         3.8431    5.2082   -1.9200 C.2       1 <0>         0.0399
     15 C11         2.7978    6.0522   -1.8273 C.2       1 <0>         0.0548
     16 N2          3.3101    7.3213   -1.8515 N.pl3     1 <0>        -0.4992
     17 H2          2.8041    8.1473   -1.8013 H         1 <0>         0.4667
     18 C12         4.6516    7.2085   -1.9582 C.cat     1 <0>         0.3068
     19 N3          4.9635    5.9418   -1.9936 N.pl3     1 <0>        -0.4744
     20 N4          4.9826    3.5023    0.1807 N.am      1 <0>        -0.7074
     21 C13         5.1507    4.7080    0.7590 C.2       1 <0>         0.5165
     22 O3          4.2584    5.5286    0.7207 O.2       1 <0>        -0.5323
     23 C14         6.4473    5.0366    1.4533 C.3       1 <0>         0.1509
     24 C15         7.6000    4.9432    0.4516 C.3       1 <0>        -0.0862
     25 C16         8.9082    5.1508    1.1704 C.ar      1 <0>        -0.0823
     26 C17         9.4278    6.4246    1.3060 C.ar      1 <0>        -0.1083
     27 C18        10.6277    6.6150    1.9654 C.ar      1 <0>        -0.1136
     28 C19        11.3078    5.5317    2.4896 C.ar      1 <0>        -0.1081
     29 C20        10.7878    4.2580    2.3548 C.ar      1 <0>        -0.1084
     30 C21         9.5857    4.0681    1.6992 C.ar      1 <0>        -0.0998
     31 N5          6.3802    6.3960    1.9953 N.am      1 <0>        -0.6983
     32 C22         7.1503    6.7412    3.0460 C.2       1 <0>         0.6496
     33 O4          7.9003    5.9250    3.5438 O.2       1 <0>        -0.5393
     34 O5          7.0887    7.9906    3.5441 O.3       1 <0>        -0.3586
     35 C23         7.9328    8.2871    4.6584 C.3       1 <0>         0.1326
     36 C24         7.7289    9.7208    5.0756 C.ar      1 <0>        -0.1039
     37 C25         8.5005   10.7206    4.5135 C.ar      1 <0>        -0.0939
     38 C26         8.3135   12.0357    4.8962 C.ar      1 <0>        -0.1227
     39 C27         7.3545   12.3510    5.8405 C.ar      1 <0>        -0.1044
     40 C28         6.5822   11.3513    6.4019 C.ar      1 <0>        -0.1216
     41 C29         6.7663   10.0367    6.0161 C.ar      1 <0>        -0.0937
     42 H3         -1.8486    0.3433   -0.9353 H         1 <0>         0.0555
     43 H4         -1.7041   -1.3271   -0.3379 H         1 <0>         0.0600
     44 H5         -1.9983    0.0047    0.8057 H         1 <0>         0.0596
     45 H6          0.2370    0.9680    0.1855 H         1 <0>         0.0688
     46 H7          0.2770   -1.9308    1.1408 H         1 <0>         0.0615
     47 H8          1.5720   -0.7363    1.3946 H         1 <0>         0.0548
     48 H9         -0.0159   -0.5045    2.1646 H         1 <0>         0.0589
     49 H10         0.5978   -1.6847   -1.2774 H         1 <0>         0.0954
     50 H11         0.3252   -0.1202   -2.0813 H         1 <0>         0.0772
     51 H12         2.9239   -1.9511   -2.4438 H         1 <0>         0.1111
     52 H13         1.7603    1.7412   -1.4830 H         1 <0>         0.4051
     53 H14         2.8958    3.6552    0.0370 H         1 <0>         0.1301
     54 H15         4.6454    3.2995   -2.4372 H         1 <0>         0.1099
     55 H16         2.8678    3.3887   -2.4611 H         1 <0>         0.1272
     56 H17         1.7555    5.7800   -1.7493 H         1 <0>         0.2232
     57 H18         5.3508    8.0304   -2.0027 H         1 <0>         0.2622
     58 H19         5.6962    2.8460    0.2113 H         1 <0>         0.4215
     59 H20         6.6137    4.3293    2.2657 H         1 <0>         0.1293
     60 H21         7.5952    3.9592   -0.0172 H         1 <0>         0.0913
     61 H22         7.4799    5.7106   -0.3131 H         1 <0>         0.0700
     62 H23         8.8964    7.2709    0.8964 H         1 <0>         0.1078
     63 H24        11.0340    7.6101    2.0707 H         1 <0>         0.1176
     64 H25        12.2457    5.6804    3.0041 H         1 <0>         0.1212
     65 H26        11.3193    3.4116    2.7641 H         1 <0>         0.1222
     66 H27         9.1775    3.0734    1.5971 H         1 <0>         0.1180
     67 H28         5.7815    7.0475    1.5979 H         1 <0>         0.4090
     68 H29         7.6824    7.6278    5.4895 H         1 <0>         0.0782
     69 H30         8.9745    8.1356    4.3756 H         1 <0>         0.0796
     70 H31         9.2497   10.4742    3.7758 H         1 <0>         0.1232
     71 H32         8.9168   12.8167    4.4576 H         1 <0>         0.1273
     72 H33         7.2088   13.3784    6.1400 H         1 <0>         0.1272
     73 H34         5.8332   11.5977    7.1399 H         1 <0>         0.1277
     74 H35         6.1604    9.2561    6.4519 H         1 <0>         0.1240
     75 H36         5.8635    5.5869   -2.0640 H         1 <0>         0.4578
@<TRIPOS>BOND
     1    1    2 1
     2    1   42 1
     3    1   43 1
     4    1   44 1
     5    2    3 1
     6    2    4 1
     7    2   45 1
     8    3   46 1
     9    3   47 1
    10    3   48 1
    11    4    5 1
    12    4   49 1
    13    4   50 1
    14    5    6 1
    15    5    7 1
    16    5    9 1
    17    7    8 2
    18    7   51 1
    19    9   10 am
    20    9   52 1
    21   10   11 2
    22   10   12 1
    23   12   13 1
    24   12   20 1
    25   12   53 1
    26   13   14 1
    27   13   54 1
    28   13   55 1
    29   14   19 1
    30   14   15 2
    31   15   16 1
    32   15   56 1
    33   16   17 1
    34   16   18 1
    35   18   19 2
    36   18   57 1
    37   19   75 1
    38   20   21 am
    39   20   58 1
    40   21   22 2
    41   21   23 1
    42   23   24 1
    43   23   31 1
    44   23   59 1
    45   24   25 1
    46   24   60 1
    47   24   61 1
    48   25   30 ar
    49   25   26 ar
    50   26   27 ar
    51   26   62 1
    52   27   28 ar
    53   27   63 1
    54   28   29 ar
    55   28   64 1
    56   29   30 ar
    57   29   65 1
    58   30   66 1
    59   31   32 am
    60   31   67 1
    61   32   33 2
    62   32   34 1
    63   34   35 1
    64   35   36 1
    65   35   68 1
    66   35   69 1
    67   36   41 ar
    68   36   37 ar
    69   37   38 ar
    70   37   70 1
    71   38   39 ar
    72   38   71 1
    73   39   40 ar
    74   39   72 1
    75   40   41 ar
    76   40   73 1
    77   41   74 1
@<TRIPOS>MOLECULE
CHEMBL368813__4
   74    76     0     0     0
SMALL
USER_CHARGES

@<TRIPOS>ATOM
      1 C1         -0.0187    1.5258    0.0104 C.3       1 <0>        -0.1497
      2 C2          0.0021   -0.0041    0.0020 C.3       1 <0>        -0.0945
      3 C3          0.7421   -0.5109    1.2415 C.3       1 <0>        -0.1540
      4 C4         -1.4333   -0.5336    0.0129 C.3       1 <0>        -0.1177
      5 C5         -1.4157   -2.0577   -0.1212 C.3       1 <0>         0.0744
      6 H1         -0.7891   -2.4841    0.6622 H         1 <0>         0.1266
      7 C6         -2.8192   -2.5900    0.0125 C.2       1 <0>         0.3292
      8 O1         -3.3176   -3.2130   -0.8939 O.2       1 <0>        -0.4428
      9 N1         -0.8765   -2.4263   -1.4325 N.am      1 <0>        -0.7083
     10 C7         -0.2982   -3.6308   -1.6090 C.2       1 <0>         0.5197
     11 O2         -0.2242   -4.4096   -0.6822 O.2       1 <0>        -0.5258
     12 C8          0.2565   -4.0101   -2.9579 C.3       1 <0>         0.1392
     13 C9         -0.8664   -3.9833   -3.9969 C.3       1 <0>        -0.0495
     14 C10        -0.2907   -4.2419   -5.3654 C.2       1 <0>        -0.0165
     15 C11        -0.0497   -5.4449   -5.9207 C.2       1 <0>        -0.0075
     16 N2          0.4611   -5.2423   -7.1442 N.2       1 <0>        -0.4843
     17 H2          0.0262   -2.3369   -6.1781 H         1 <0>         0.4148
     18 C12         0.5458   -3.9595   -7.3682 C.2       1 <0>         0.1918
     19 N3          0.0821   -3.2993   -6.2852 N.pl3     1 <0>        -0.5599
     20 N4          0.8270   -5.3577   -2.8901 N.am      1 <0>        -0.7083
     21 C13         1.7936   -5.7246   -3.7546 C.2       1 <0>         0.5196
     22 O3          2.1912   -4.9391   -4.5888 O.2       1 <0>        -0.5078
     23 C14         2.3805   -7.1108   -3.6848 C.3       1 <0>         0.1599
     24 C15         1.2746   -8.1446   -3.9064 C.3       1 <0>        -0.0934
     25 C16         1.8362   -9.5299   -3.7152 C.ar      1 <0>        -0.0677
     26 C17         2.3769  -10.2109   -4.7899 C.ar      1 <0>        -0.1058
     27 C18         2.8921  -11.4816   -4.6145 C.ar      1 <0>        -0.1152
     28 C19         2.8670  -12.0712   -3.3644 C.ar      1 <0>        -0.1170
     29 C20         2.3272  -11.3898   -2.2896 C.ar      1 <0>        -0.1132
     30 C21         1.8159  -10.1174   -2.4641 C.ar      1 <0>        -0.1030
     31 N5          3.4040   -7.2606   -4.7222 N.am      1 <0>        -0.6912
     32 C22         4.3938   -8.1622   -4.5672 C.2       1 <0>         0.6510
     33 O4          4.4372   -8.8508   -3.5669 O.2       1 <0>        -0.5518
     34 O5          5.3344   -8.2999   -5.5205 O.3       1 <0>        -0.3582
     35 C23         6.3537   -9.2745   -5.2903 C.3       1 <0>         0.1318
     36 C24         7.3097   -9.2864   -6.4552 C.ar      1 <0>        -0.0987
     37 C25         7.0741  -10.1177   -7.5342 C.ar      1 <0>        -0.0926
     38 C26         7.9510  -10.1287   -8.6027 C.ar      1 <0>        -0.1233
     39 C27         9.0633   -9.3080   -8.5925 C.ar      1 <0>        -0.1083
     40 C28         9.2985   -8.4760   -7.5138 C.ar      1 <0>        -0.1236
     41 C29         8.4193   -8.4620   -6.4472 C.ar      1 <0>        -0.0941
     42 H3          1.0039    1.9031    0.0027 H         1 <0>         0.0578
     43 H4         -0.5459    1.8868   -0.8726 H         1 <0>         0.0552
     44 H5         -0.5289    1.8773    0.9072 H         1 <0>         0.0578
     45 H6          0.5123   -0.3556   -0.8948 H         1 <0>         0.0714
     46 H7          0.7568   -1.6008    1.2356 H         1 <0>         0.0566
     47 H8          1.7647   -0.1336    1.2338 H         1 <0>         0.0574
     48 H9          0.2319   -0.1594    2.1383 H         1 <0>         0.0590
     49 H10        -1.9156   -0.2570    0.9504 H         1 <0>         0.0915
     50 H11        -1.9862   -0.1019   -0.8214 H         1 <0>         0.0755
     51 H12        -3.3792   -2.4143    0.9191 H         1 <0>         0.1058
     52 H13        -0.9356   -1.8035   -2.1738 H         1 <0>         0.4043
     53 H14         1.0331   -3.3007   -3.2439 H         1 <0>         0.1155
     54 H15        -1.5995   -4.7542   -3.7595 H         1 <0>         0.0989
     55 H16        -1.3495   -3.0063   -3.9847 H         1 <0>         0.0839
     56 H17        -0.2352   -6.4046   -5.4613 H         1 <0>         0.1554
     57 H18         0.9213   -3.5017   -8.2714 H         1 <0>         0.2028
     58 H19         0.5090   -5.9859   -2.2229 H         1 <0>         0.4128
     59 H20         2.8314   -7.2656   -2.7045 H         1 <0>         0.1187
     60 H21         0.4709   -7.9763   -3.1896 H         1 <0>         0.0887
     61 H22         0.8841   -8.0475   -4.9194 H         1 <0>         0.0874
     62 H23         2.3964   -9.7503   -5.7665 H         1 <0>         0.1119
     63 H24         3.3138  -12.0139   -5.4543 H         1 <0>         0.1143
     64 H25         3.2689  -13.0642   -3.2276 H         1 <0>         0.1159
     65 H26         2.3074  -11.8505   -1.3130 H         1 <0>         0.1172
     66 H27         1.3976   -9.5836   -1.6236 H         1 <0>         0.1165
     67 H28         3.3694   -6.7110   -5.5207 H         1 <0>         0.4170
     68 H29         6.8957   -9.0249   -4.3781 H         1 <0>         0.0753
     69 H30         5.8979  -10.2589   -5.1843 H         1 <0>         0.0777
     70 H31         6.2051  -10.7589   -7.5422 H         1 <0>         0.1243
     71 H32         7.7673  -10.7787   -9.4455 H         1 <0>         0.1258
     72 H33         9.7488   -9.3170   -9.4270 H         1 <0>         0.1245
     73 H34        10.1677   -7.8351   -7.5057 H         1 <0>         0.1254
     74 H35         8.6010   -7.8092   -5.6062 H         1 <0>         0.1237
@<TRIPOS>BOND
     1    1    2 1
     2    1   42 1
     3    1   43 1
     4    1   44 1
     5    2    3 1
     6    2    4 1
     7    2   45 1
     8    3   46 1
     9    3   47 1
    10    3   48 1
    11    4    5 1
    12    4   49 1
    13    4   50 1
    14    5    6 1
    15    5    7 1
    16    5    9 1
    17    7    8 2
    18    7   51 1
    19    9   10 am
    20    9   52 1
    21   10   11 2
    22   10   12 1
    23   12   13 1
    24   12   20 1
    25   12   53 1
    26   13   54 1
    27   13   55 1
    28   13   14 1
    29   14   15 2
    30   14   19 1
    31   15   16 1
    32   15   56 1
    33   16   18 2
    34   17   19 1
    35   18   57 1
    36   18   19 1
    37   20   21 am
    38   20   58 1
    39   21   22 2
    40   21   23 1
    41   23   24 1
    42   23   31 1
    43   23   59 1
    44   24   25 1
    45   24   60 1
    46   24   61 1
    47   25   30 ar
    48   25   26 ar
    49   26   27 ar
    50   26   62 1
    51   27   28 ar
    52   27   63 1
    53   28   29 ar
    54   28   64 1
    55   29   30 ar
    56   29   65 1
    57   30   66 1
    58   31   32 am
    59   31   67 1
    60   32   33 2
    61   32   34 1
    62   34   35 1
    63   35   36 1
    64   35   68 1
    65   35   69 1
    66   36   41 ar
    67   36   37 ar
    68   37   38 ar
    69   37   70 1
    70   38   39 ar
    71   38   71 1
    72   39   40 ar
    73   39   72 1
    74   40   41 ar
    75   40   73 1
    76   41   74 1
@<TRIPOS>MOLECULE
CHEMBL368813__5
   74    76     0     0     0
SMALL
USER_CHARGES

@<TRIPOS>ATOM
      1 C1         -0.0187    1.5258    0.0104 C.3       1 <0>        -0.1492
      2 C2          0.0021   -0.0041    0.0020 C.3       1 <0>        -0.0954
      3 C3          0.7421   -0.5109    1.2415 C.3       1 <0>        -0.1532
      4 C4         -1.4333   -0.5336    0.0129 C.3       1 <0>        -0.1173
      5 C5         -1.4157   -2.0577   -0.1212 C.3       1 <0>         0.0747
      6 H1         -0.7891   -2.4841    0.6622 H         1 <0>         0.1253
      7 C6         -2.8192   -2.5900    0.0125 C.2       1 <0>         0.3293
      8 O1         -3.3176   -3.2130   -0.8939 O.2       1 <0>        -0.4432
      9 N1         -0.8765   -2.4263   -1.4325 N.am      1 <0>        -0.7077
     10 C7         -0.2982   -3.6308   -1.6090 C.2       1 <0>         0.5199
     11 O2         -0.2242   -4.4096   -0.6822 O.2       1 <0>        -0.5338
     12 C8          0.2565   -4.0101   -2.9579 C.3       1 <0>         0.1418
     13 C9         -0.8664   -3.9833   -3.9969 C.3       1 <0>        -0.0374
     14 C10        -0.2907   -4.2419   -5.3654 C.2       1 <0>         0.0084
     15 C11        -0.6883   -5.2013   -6.2228 C.2       1 <0>        -0.0575
     16 N2          0.0937   -5.0829   -7.3399 N.pl3     1 <0>        -0.5712
     17 H2          0.0469   -5.6346   -8.1364 H         1 <0>         0.4168
     18 C12         0.9425   -4.0546   -7.1262 C.2       1 <0>         0.1928
     19 N3          0.7035   -3.5533   -5.9453 N.2       1 <0>        -0.4525
     20 N4          0.8270   -5.3577   -2.8901 N.am      1 <0>        -0.7067
     21 C13         1.7936   -5.7246   -3.7546 C.2       1 <0>         0.5102
     22 O3          2.1912   -4.9391   -4.5888 O.2       1 <0>        -0.4946
     23 C14         2.3805   -7.1108   -3.6848 C.3       1 <0>         0.1571
     24 C15         1.2746   -8.1446   -3.9064 C.3       1 <0>        -0.0876
     25 C16         1.8362   -9.5299   -3.7152 C.ar      1 <0>        -0.0680
     26 C17         2.3769  -10.2109   -4.7899 C.ar      1 <0>        -0.1080
     27 C18         2.8921  -11.4816   -4.6145 C.ar      1 <0>        -0.1154
     28 C19         2.8670  -12.0712   -3.3644 C.ar      1 <0>        -0.1171
     29 C20         2.3272  -11.3898   -2.2896 C.ar      1 <0>        -0.1117
     30 C21         1.8159  -10.1174   -2.4641 C.ar      1 <0>        -0.1025
     31 N5          3.4040   -7.2606   -4.7222 N.am      1 <0>        -0.6918
     32 C22         4.3938   -8.1622   -4.5672 C.2       1 <0>         0.6502
     33 O4          4.4372   -8.8508   -3.5669 O.2       1 <0>        -0.5501
     34 O5          5.3344   -8.2999   -5.5205 O.3       1 <0>        -0.3597
     35 C23         6.3537   -9.2745   -5.2903 C.3       1 <0>         0.1318
     36 C24         7.3097   -9.2864   -6.4552 C.ar      1 <0>        -0.0989
     37 C25         7.0741  -10.1177   -7.5342 C.ar      1 <0>        -0.0937
     38 C26         7.9510  -10.1287   -8.6027 C.ar      1 <0>        -0.1237
     39 C27         9.0633   -9.3080   -8.5925 C.ar      1 <0>        -0.1081
     40 C28         9.2985   -8.4760   -7.5138 C.ar      1 <0>        -0.1228
     41 C29         8.4193   -8.4620   -6.4472 C.ar      1 <0>        -0.0935
     42 H3          1.0039    1.9031    0.0027 H         1 <0>         0.0575
     43 H4         -0.5459    1.8868   -0.8726 H         1 <0>         0.0558
     44 H5         -0.5289    1.8773    0.9072 H         1 <0>         0.0566
     45 H6          0.5123   -0.3556   -0.8948 H         1 <0>         0.0738
     46 H7          0.2319   -0.1594    2.1383 H         1 <0>         0.0578
     47 H8          0.7568   -1.6008    1.2356 H         1 <0>         0.0564
     48 H9          1.7647   -0.1336    1.2338 H         1 <0>         0.0570
     49 H10        -1.9156   -0.2570    0.9504 H         1 <0>         0.0899
     50 H11        -1.9862   -0.1019   -0.8214 H         1 <0>         0.0760
     51 H12        -3.3792   -2.4143    0.9191 H         1 <0>         0.1040
     52 H13        -0.9356   -1.8035   -2.1738 H         1 <0>         0.4071
     53 H14         1.0331   -3.3007   -3.2439 H         1 <0>         0.1254
     54 H15        -1.5995   -4.7542   -3.7595 H         1 <0>         0.0829
     55 H16        -1.3495   -3.0063   -3.9847 H         1 <0>         0.0863
     56 H17        -1.4731   -5.9252   -6.0600 H         1 <0>         0.1671
     57 H18         1.6923   -3.7027   -7.8194 H         1 <0>         0.2002
     58 H19         0.5090   -5.9859   -2.2229 H         1 <0>         0.4089
     59 H20         2.8314   -7.2656   -2.7045 H         1 <0>         0.1177
     60 H21         0.4709   -7.9763   -3.1896 H         1 <0>         0.0889
     61 H22         0.8841   -8.0475   -4.9194 H         1 <0>         0.0800
     62 H23         2.3964   -9.7503   -5.7665 H         1 <0>         0.1083
     63 H24         3.3138  -12.0139   -5.4543 H         1 <0>         0.1138
     64 H25         3.2689  -13.0642   -3.2276 H         1 <0>         0.1164
     65 H26         2.3074  -11.8505   -1.3130 H         1 <0>         0.1181
     66 H27         1.3976   -9.5836   -1.6236 H         1 <0>         0.1174
     67 H28         3.3694   -6.7110   -5.5207 H         1 <0>         0.4133
     68 H29         6.8957   -9.0249   -4.3781 H         1 <0>         0.0760
     69 H30         5.8979  -10.2589   -5.1843 H         1 <0>         0.0773
     70 H31         6.2051  -10.7589   -7.5422 H         1 <0>         0.1234
     71 H32         7.7673  -10.7787   -9.4455 H         1 <0>         0.1256
     72 H33         9.7488   -9.3170   -9.4270 H         1 <0>         0.1249
     73 H34        10.1677   -7.8351   -7.5057 H         1 <0>         0.1261
     74 H35         8.6010   -7.8092   -5.6062 H         1 <0>         0.1244
@<TRIPOS>BOND
     1    1    2 1
     2    1   42 1
     3    1   43 1
     4    1   44 1
     5    2    3 1
     6    2    4 1
     7    2   45 1
     8    3   46 1
     9    3   47 1
    10    3   48 1
    11    4    5 1
    12    4   49 1
    13    4   50 1
    14    5    6 1
    15    5    7 1
    16    5    9 1
    17    7    8 2
    18    7   51 1
    19    9   10 am
    20    9   52 1
    21   10   11 2
    22   10   12 1
    23   12   13 1
    24   12   20 1
    25   12   53 1
    26   13   14 1
    27   13   54 1
    28   13   55 1
    29   14   19 1
    30   14   15 2
    31   15   16 1
    32   15   56 1
    33   16   17 1
    34   16   18 1
    35   18   19 2
    36   18   57 1
    37   20   21 am
    38   20   58 1
    39   21   22 2
    40   21   23 1
    41   23   24 1
    42   23   31 1
    43   23   59 1
    44   24   25 1
    45   24   60 1
    46   24   61 1
    47   25   30 ar
    48   25   26 ar
    49   26   27 ar
    50   26   62 1
    51   27   28 ar
    52   27   63 1
    53   28   29 ar
    54   28   64 1
    55   29   30 ar
    56   29   65 1
    57   30   66 1
    58   31   32 am
    59   31   67 1
    60   32   33 2
    61   32   34 1
    62   34   35 1
    63   35   36 1
    64   35   68 1
    65   35   69 1
    66   36   41 ar
    67   36   37 ar
    68   37   38 ar
    69   37   70 1
    70   38   39 ar
    71   38   71 1
    72   39   40 ar
    73   39   72 1
    74   40   41 ar
    75   40   73 1
    76   41   74 1
@<TRIPOS>MOLECULE
CHEMBL368813__6
   75    77     0     0     0
SMALL
USER_CHARGES

@<TRIPOS>ATOM
      1 C1         -1.4919   -0.2815   -0.1160 C.3       1 <0>        -0.1527
      2 C2          0.0170   -0.0913    0.0507 C.3       1 <0>        -0.0902
      3 C3          0.4972   -0.8723    1.2757 C.3       1 <0>        -0.1562
      4 C4          0.7370   -0.6066   -1.1970 C.3       1 <0>        -0.1207
      5 C5          2.2304   -0.2918   -1.0907 C.3       1 <0>         0.0747
      6 H1          2.6270   -0.7186   -0.1695 H         1 <0>         0.1302
      7 C6          2.9543   -0.8853   -2.2717 C.2       1 <0>         0.3290
      8 O1          3.5683   -0.1692   -3.0257 O.2       1 <0>        -0.4449
      9 N1          2.4237    1.1604   -1.0789 N.am      1 <0>        -0.7046
     10 C7          3.5233    1.6892   -0.5064 C.2       1 <0>         0.5166
     11 O2          4.3528    0.9629   -0.0011 O.2       1 <0>        -0.5127
     12 C8          3.7222    3.1829   -0.4943 C.3       1 <0>         0.1316
     13 C9          2.5622    3.8458    0.2514 C.3       1 <0>        -0.0720
     14 C10         2.6959    5.3440    0.1582 C.2       1 <0>         0.0445
     15 C11         3.4387    6.1240    0.9665 C.2       1 <0>         0.0382
     16 N2          3.2765    7.4120    0.5325 N.pl3     1 <0>        -0.5018
     17 H2          3.6861    8.2040    0.9144 H         1 <0>         0.4659
     18 C12         2.4396    7.3742   -0.5268 C.cat     1 <0>         0.3146
     19 N3          2.1004    6.1336   -0.7479 N.pl3     1 <0>        -0.4670
     20 N4          4.9826    3.5023    0.1807 N.am      1 <0>        -0.7050
     21 C13         5.6267    4.6517   -0.1033 C.2       1 <0>         0.5230
     22 O3          5.1628    5.4216   -0.9175 O.2       1 <0>        -0.5369
     23 C14         6.9233    4.9802    0.5910 C.3       1 <0>         0.1515
     24 C15         6.6894    5.0510    2.1013 C.3       1 <0>        -0.0876
     25 C16         8.0062    5.2575    2.8044 C.ar      1 <0>        -0.0812
     26 C17         8.7573    4.1664    3.1998 C.ar      1 <0>        -0.0999
     27 C18         9.9652    4.3559    3.8447 C.ar      1 <0>        -0.1085
     28 C19        10.4222    5.6365    4.0939 C.ar      1 <0>        -0.1090
     29 C20         9.6716    6.7276    3.6978 C.ar      1 <0>        -0.1141
     30 C21         8.4657    6.5381    3.0490 C.ar      1 <0>        -0.1086
     31 N5          7.4195    6.2730    0.1126 N.am      1 <0>        -0.6981
     32 C22         8.7363    6.5535    0.1729 C.2       1 <0>         0.6495
     33 O4          9.5120    5.7343    0.6242 O.2       1 <0>        -0.5393
     34 O5          9.1923    7.7416   -0.2667 O.3       1 <0>        -0.3592
     35 C23        10.5996    7.9715   -0.1727 C.3       1 <0>         0.1325
     36 C24        10.9214    9.3429   -0.7080 C.ar      1 <0>        -0.1036
     37 C25        11.2121    9.5107   -2.0490 C.ar      1 <0>        -0.0938
     38 C26        11.5074   10.7688   -2.5400 C.ar      1 <0>        -0.1217
     39 C27        11.5114   11.8590   -1.6902 C.ar      1 <0>        -0.1046
     40 C28        11.2198   11.6913   -0.3494 C.ar      1 <0>        -0.1228
     41 C29        10.9204   10.4340    0.1409 C.ar      1 <0>        -0.0940
     42 H3         -1.8486    0.3432   -0.9350 H         1 <0>         0.0549
     43 H4         -1.7040   -1.3274   -0.3379 H         1 <0>         0.0608
     44 H5         -1.9983    0.0042    0.8060 H         1 <0>         0.0593
     45 H6          0.2370    0.9677    0.1858 H         1 <0>         0.0667
     46 H7          0.2772   -1.9312    1.1406 H         1 <0>         0.0619
     47 H8          1.5722   -0.7367    1.3945 H         1 <0>         0.0559
     48 H9         -0.0157   -0.5051    2.1646 H         1 <0>         0.0586
     49 H10         0.5978   -1.6847   -1.2776 H         1 <0>         0.0961
     50 H11         0.3251   -0.1200   -2.0812 H         1 <0>         0.0766
     51 H12         2.9239   -1.9511   -2.4438 H         1 <0>         0.1111
     52 H13         1.7603    1.7412   -1.4830 H         1 <0>         0.4032
     53 H14         3.7546    3.5535   -1.5188 H         1 <0>         0.1254
     54 H15         1.6181    3.5367   -0.1971 H         1 <0>         0.1122
     55 H16         2.5833    3.5435    1.2984 H         1 <0>         0.1249
     56 H17         4.0454    5.7963    1.7978 H         1 <0>         0.2144
     57 H18         2.1091    8.2286   -1.0987 H         1 <0>         0.2649
     58 H19         5.3537    2.8866    0.8319 H         1 <0>         0.4221
     59 H20         7.6585    4.2056    0.3731 H         1 <0>         0.1291
     60 H21         6.0225    5.8831    2.3271 H         1 <0>         0.0745
     61 H22         6.2372    4.1199    2.4430 H         1 <0>         0.0928
     62 H23         8.4002    3.1660    3.0051 H         1 <0>         0.1183
     63 H24        10.5516    3.5035    4.1542 H         1 <0>         0.1218
     64 H25        11.3656    5.7845    4.5984 H         1 <0>         0.1207
     65 H26        10.0285    7.7281    3.8927 H         1 <0>         0.1170
     66 H27         7.8811    7.3906    2.7362 H         1 <0>         0.1075
     67 H28         6.8002    6.9269   -0.2477 H         1 <0>         0.4085
     68 H29        10.9094    7.9066    0.8704 H         1 <0>         0.0796
     69 H30        11.1304    7.2197   -0.7567 H         1 <0>         0.0782
     70 H31        11.2089    8.6590   -2.7129 H         1 <0>         0.1240
     71 H32        11.7352   10.8998   -3.5875 H         1 <0>         0.1276
     72 H33        11.7428   12.8418   -2.0737 H         1 <0>         0.1271
     73 H34        11.2233   12.5431    0.3147 H         1 <0>         0.1272
     74 H35        10.6889   10.3035    1.1877 H         1 <0>         0.1233
     75 H36         1.5095    5.8305   -1.4548 H         1 <0>         0.4626
@<TRIPOS>BOND
     1    1    2 1
     2    1   42 1
     3    1   43 1
     4    1   44 1
     5    2    3 1
     6    2    4 1
     7    2   45 1
     8    3   46 1
     9    3   47 1
    10    3   48 1
    11    4    5 1
    12    4   49 1
    13    4   50 1
    14    5    6 1
    15    5    7 1
    16    5    9 1
    17    7    8 2
    18    7   51 1
    19    9   10 am
    20    9   52 1
    21   10   11 2
    22   10   12 1
    23   12   13 1
    24   12   20 1
    25   12   53 1
    26   13   14 1
    27   13   54 1
    28   13   55 1
    29   14   19 1
    30   14   15 2
    31   15   16 1
    32   15   56 1
    33   16   17 1
    34   16   18 1
    35   18   19 2
    36   18   57 1
    37   19   75 1
    38   20   21 am
    39   20   58 1
    40   21   22 2
    41   21   23 1
    42   23   24 1
    43   23   31 1
    44   23   59 1
    45   24   25 1
    46   24   60 1
    47   24   61 1
    48   25   30 ar
    49   25   26 ar
    50   26   27 ar
    51   26   62 1
    52   27   28 ar
    53   27   63 1
    54   28   29 ar
    55   28   64 1
    56   29   30 ar
    57   29   65 1
    58   30   66 1
    59   31   32 am
    60   31   67 1
    61   32   33 2
    62   32   34 1
    63   34   35 1
    64   35   36 1
    65   35   68 1
    66   35   69 1
    67   36   41 ar
    68   36   37 ar
    69   37   38 ar
    70   37   70 1
    71   38   39 ar
    72   38   71 1
    73   39   40 ar
    74   39   72 1
    75   40   41 ar
    76   40   73 1
    77   41   74 1
@<TRIPOS>MOLECULE
CHEMBL368813__7
   74    76     0     0     0
SMALL
USER_CHARGES

@<TRIPOS>ATOM
      1 C1         -0.0187    1.5258    0.0104 C.3       1 <0>        -0.1501
      2 C2          0.0021   -0.0041    0.0020 C.3       1 <0>        -0.0939
      3 C3          0.7421   -0.5109    1.2415 C.3       1 <0>        -0.1537
      4 C4         -1.4333   -0.5336    0.0129 C.3       1 <0>        -0.1183
      5 C5         -1.4157   -2.0577   -0.1212 C.3       1 <0>         0.0752
      6 H1         -0.7891   -2.4841    0.6622 H         1 <0>         0.1262
      7 C6         -2.8192   -2.5900    0.0125 C.2       1 <0>         0.3273
      8 O1         -3.3176   -3.2130   -0.8939 O.2       1 <0>        -0.4422
      9 N1         -0.8765   -2.4263   -1.4325 N.am      1 <0>        -0.7069
     10 C7         -0.2982   -3.6308   -1.6090 C.2       1 <0>         0.5206
     11 O2         -0.2242   -4.4096   -0.6822 O.2       1 <0>        -0.5298
     12 C8          0.2565   -4.0101   -2.9579 C.3       1 <0>         0.1355
     13 C9          1.3466   -3.0144   -3.3594 C.3       1 <0>        -0.0487
     14 C10         1.8153   -3.3198   -4.7587 C.2       1 <0>        -0.0182
     15 C11         1.2533   -2.8913   -5.9050 C.2       1 <0>         0.0008
     16 N2          1.9699   -3.3819   -6.9272 N.2       1 <0>        -0.4841
     17 H2          3.5081   -4.5275   -4.5011 H         1 <0>         0.4106
     18 C12         2.9546   -4.0981   -6.4578 C.2       1 <0>         0.1913
     19 N3          2.8976   -4.0812   -5.1087 N.pl3     1 <0>        -0.5641
     20 N4          0.8270   -5.3577   -2.8901 N.am      1 <0>        -0.7096
     21 C13         0.9198   -6.1072   -4.0063 C.2       1 <0>         0.5095
     22 O3          0.5311   -5.6660   -5.0671 O.2       1 <0>        -0.4984
     23 C14         1.5067   -7.4934   -3.9365 C.3       1 <0>         0.1566
     24 C15         2.9463   -7.4126   -3.4248 C.3       1 <0>        -0.0884
     25 C16         3.4920   -8.8049   -3.2382 C.ar      1 <0>        -0.0709
     26 C17         3.3367   -9.4515   -2.0263 C.ar      1 <0>        -0.1018
     27 C18         3.8373  -10.7286   -1.8552 C.ar      1 <0>        -0.1115
     28 C19         4.4928  -11.3593   -2.8961 C.ar      1 <0>        -0.1151
     29 C20         4.6473  -10.7130   -4.1082 C.ar      1 <0>        -0.1147
     30 C21         4.1430   -9.4376   -4.2807 C.ar      1 <0>        -0.1071
     31 N5          1.4962   -8.0960   -5.2718 N.am      1 <0>        -0.6933
     32 C22         1.4823   -9.4370   -5.4059 C.2       1 <0>         0.6512
     33 O4          1.4786  -10.1463   -4.4193 O.2       1 <0>        -0.5499
     34 O5          1.4727   -9.9908   -6.6331 O.3       1 <0>        -0.3578
     35 C23         1.4582  -11.4181   -6.7006 C.3       1 <0>         0.1320
     36 C24         1.4490  -11.8527   -8.1436 C.ar      1 <0>        -0.0999
     37 C25         0.2477  -12.0345   -8.8030 C.ar      1 <0>        -0.0933
     38 C26         0.2393  -12.4331  -10.1266 C.ar      1 <0>        -0.1227
     39 C27         1.4321  -12.6494  -10.7909 C.ar      1 <0>        -0.1074
     40 C28         2.6334  -12.4666  -10.1318 C.ar      1 <0>        -0.1235
     41 C29         2.6419  -12.0639   -8.8094 C.ar      1 <0>        -0.0933
     42 H3          1.0039    1.9031    0.0027 H         1 <0>         0.0577
     43 H4         -0.5459    1.8868   -0.8726 H         1 <0>         0.0563
     44 H5         -0.5289    1.8773    0.9072 H         1 <0>         0.0572
     45 H6          0.5123   -0.3556   -0.8948 H         1 <0>         0.0727
     46 H7          0.7568   -1.6008    1.2356 H         1 <0>         0.0562
     47 H8          1.7647   -0.1336    1.2338 H         1 <0>         0.0571
     48 H9          0.2319   -0.1594    2.1383 H         1 <0>         0.0584
     49 H10        -1.9156   -0.2570    0.9504 H         1 <0>         0.0911
     50 H11        -1.9862   -0.1019   -0.8214 H         1 <0>         0.0768
     51 H12        -3.3792   -2.4143    0.9191 H         1 <0>         0.1054
     52 H13        -0.9356   -1.8035   -2.1738 H         1 <0>         0.4068
     53 H14        -0.5435   -3.9910   -3.6981 H         1 <0>         0.1240
     54 H15         0.9447   -2.0017   -3.3237 H         1 <0>         0.1005
     55 H16         2.1860   -3.0967   -2.6689 H         1 <0>         0.0808
     56 H17         0.3788   -2.2628   -5.9869 H         1 <0>         0.1614
     57 H18         3.6946   -4.6158   -7.0501 H         1 <0>         0.2008
     58 H19         1.1379   -5.7106   -2.0417 H         1 <0>         0.4111
     59 H20         0.9134   -8.1054   -3.2571 H         1 <0>         0.1205
     60 H21         3.5596   -6.8760   -4.1486 H         1 <0>         0.0770
     61 H22         2.9639   -6.8847   -2.4713 H         1 <0>         0.0885
     62 H23         2.8246   -8.9588   -1.2131 H         1 <0>         0.1169
     63 H24         3.7165  -11.2335   -0.9081 H         1 <0>         0.1185
     64 H25         4.8845  -12.3568   -2.7621 H         1 <0>         0.1172
     65 H26         5.1598  -11.2057   -4.9213 H         1 <0>         0.1152
     66 H27         4.2605   -8.9341   -5.2290 H         1 <0>         0.1101
     67 H28         1.4992   -7.5298   -6.0594 H         1 <0>         0.4155
     68 H29         2.3459  -11.8142   -6.2076 H         1 <0>         0.0775
     69 H30         0.5661  -11.7964   -6.2016 H         1 <0>         0.0760
     70 H31        -0.6842  -11.8655   -8.2840 H         1 <0>         0.1241
     71 H32        -0.6992  -12.5759  -10.6416 H         1 <0>         0.1261
     72 H33         1.4255  -12.9615  -11.8248 H         1 <0>         0.1251
     73 H34         3.5653  -12.6359  -10.6507 H         1 <0>         0.1258
     74 H35         3.5804  -11.9175   -8.2955 H         1 <0>         0.1235
@<TRIPOS>BOND
     1    1    2 1
     2    1   42 1
     3    1   43 1
     4    1   44 1
     5    2    3 1
     6    2    4 1
     7    2   45 1
     8    3   46 1
     9    3   47 1
    10    3   48 1
    11    4    5 1
    12    4   49 1
    13    4   50 1
    14    5    6 1
    15    5    7 1
    16    5    9 1
    17    7    8 2
    18    7   51 1
    19    9   10 am
    20    9   52 1
    21   10   11 2
    22   10   12 1
    23   12   13 1
    24   12   20 1
    25   12   53 1
    26   13   54 1
    27   13   55 1
    28   13   14 1
    29   14   15 2
    30   14   19 1
    31   15   16 1
    32   15   56 1
    33   16   18 2
    34   17   19 1
    35   18   57 1
    36   18   19 1
    37   20   21 am
    38   20   58 1
    39   21   22 2
    40   21   23 1
    41   23   24 1
    42   23   31 1
    43   23   59 1
    44   24   25 1
    45   24   60 1
    46   24   61 1
    47   25   30 ar
    48   25   26 ar
    49   26   27 ar
    50   26   62 1
    51   27   28 ar
    52   27   63 1
    53   28   29 ar
    54   28   64 1
    55   29   30 ar
    56   29   65 1
    57   30   66 1
    58   31   32 am
    59   31   67 1
    60   32   33 2
    61   32   34 1
    62   34   35 1
    63   35   36 1
    64   35   68 1
    65   35   69 1
    66   36   41 ar
    67   36   37 ar
    68   37   38 ar
    69   37   70 1
    70   38   39 ar
    71   38   71 1
    72   39   40 ar
    73   39   72 1
    74   40   41 ar
    75   40   73 1
    76   41   74 1
@<TRIPOS>MOLECULE
CHEMBL368813__8
   74    76     0     0     0
SMALL
USER_CHARGES

@<TRIPOS>ATOM
      1 C1         -0.0187    1.5258    0.0104 C.3       1 <0>        -0.1496
      2 C2          0.0021   -0.0041    0.0020 C.3       1 <0>        -0.0941
      3 C3          0.7421   -0.5109    1.2415 C.3       1 <0>        -0.1536
      4 C4         -1.4333   -0.5336    0.0129 C.3       1 <0>        -0.1176
      5 C5         -1.4157   -2.0577   -0.1212 C.3       1 <0>         0.0752
      6 H1         -0.7891   -2.4841    0.6622 H         1 <0>         0.1260
      7 C6         -2.8192   -2.5900    0.0125 C.2       1 <0>         0.3272
      8 O1         -3.3176   -3.2130   -0.8939 O.2       1 <0>        -0.4428
      9 N1         -0.8765   -2.4263   -1.4325 N.am      1 <0>        -0.7093
     10 C7         -0.2982   -3.6308   -1.6090 C.2       1 <0>         0.5193
     11 O2         -0.2242   -4.4096   -0.6822 O.2       1 <0>        -0.5303
     12 C8          0.2565   -4.0101   -2.9579 C.3       1 <0>         0.1450
     13 C9          1.3466   -3.0144   -3.3594 C.3       1 <0>        -0.0388
     14 C10         1.8153   -3.3198   -4.7587 C.2       1 <0>         0.0034
     15 C11         1.8476   -2.4535   -5.7892 C.2       1 <0>        -0.0509
     16 N2          2.3387   -3.1388   -6.8675 N.pl3     1 <0>        -0.5699
     17 H2          2.4802   -2.7842   -7.7592 H         1 <0>         0.4178
     18 C12         2.5896   -4.4010   -6.4581 C.2       1 <0>         0.1863
     19 N3          2.2788   -4.5005   -5.1945 N.2       1 <0>        -0.4513
     20 N4          0.8270   -5.3577   -2.8901 N.am      1 <0>        -0.7082
     21 C13         0.9198   -6.1072   -4.0063 C.2       1 <0>         0.5454
     22 O3          0.5311   -5.6660   -5.0671 O.2       1 <0>        -0.5098
     23 C14         1.5067   -7.4934   -3.9365 C.3       1 <0>         0.1643
     24 C15         2.9463   -7.4126   -3.4248 C.3       1 <0>        -0.0832
     25 C16         3.4920   -8.8049   -3.2382 C.ar      1 <0>        -0.0659
     26 C17         3.3367   -9.4515   -2.0263 C.ar      1 <0>        -0.1042
     27 C18         3.8373  -10.7286   -1.8552 C.ar      1 <0>        -0.1126
     28 C19         4.4928  -11.3593   -2.8961 C.ar      1 <0>        -0.1197
     29 C20         4.6473  -10.7130   -4.1082 C.ar      1 <0>        -0.1164
     30 C21         4.1430   -9.4376   -4.2807 C.ar      1 <0>        -0.1077
     31 N5          1.4962   -8.0960   -5.2718 N.am      1 <0>        -0.6884
     32 C22         1.4823   -9.4370   -5.4059 C.2       1 <0>         0.6485
     33 O4          1.4786  -10.1463   -4.4193 O.2       1 <0>        -0.5518
     34 O5          1.4727   -9.9908   -6.6331 O.3       1 <0>        -0.3610
     35 C23         1.4582  -11.4181   -6.7006 C.3       1 <0>         0.1318
     36 C24         1.4490  -11.8527   -8.1436 C.ar      1 <0>        -0.0978
     37 C25         0.2477  -12.0345   -8.8030 C.ar      1 <0>        -0.0940
     38 C26         0.2393  -12.4331  -10.1266 C.ar      1 <0>        -0.1233
     39 C27         1.4321  -12.6494  -10.7909 C.ar      1 <0>        -0.1089
     40 C28         2.6334  -12.4666  -10.1318 C.ar      1 <0>        -0.1238
     41 C29         2.6419  -12.0639   -8.8094 C.ar      1 <0>        -0.0935
     42 H3          1.0039    1.9031    0.0027 H         1 <0>         0.0575
     43 H4         -0.5459    1.8868   -0.8726 H         1 <0>         0.0552
     44 H5         -0.5289    1.8773    0.9072 H         1 <0>         0.0568
     45 H6          0.5123   -0.3556   -0.8948 H         1 <0>         0.0735
     46 H7          0.2319   -0.1594    2.1383 H         1 <0>         0.0577
     47 H8          0.7568   -1.6008    1.2356 H         1 <0>         0.0573
     48 H9          1.7647   -0.1336    1.2338 H         1 <0>         0.0571
     49 H10        -1.9156   -0.2570    0.9504 H         1 <0>         0.0900
     50 H11        -1.9862   -0.1019   -0.8214 H         1 <0>         0.0754
     51 H12        -3.3792   -2.4143    0.9191 H         1 <0>         0.1041
     52 H13        -0.9356   -1.8035   -2.1738 H         1 <0>         0.4051
     53 H14        -0.5435   -3.9910   -3.6981 H         1 <0>         0.1142
     54 H15         0.9447   -2.0017   -3.3237 H         1 <0>         0.0840
     55 H16         2.1860   -3.0967   -2.6689 H         1 <0>         0.0832
     56 H17         1.5441   -1.4172   -5.7689 H         1 <0>         0.1691
     57 H18         2.9857   -5.1954   -7.0733 H         1 <0>         0.1974
     58 H19         1.1379   -5.7106   -2.0417 H         1 <0>         0.4071
     59 H20         0.9134   -8.1054   -3.2571 H         1 <0>         0.1107
     60 H21         3.5596   -6.8760   -4.1486 H         1 <0>         0.0894
     61 H22         2.9639   -6.8847   -2.4713 H         1 <0>         0.0848
     62 H23         2.8246   -8.9588   -1.2131 H         1 <0>         0.1162
     63 H24         3.7165  -11.2335   -0.9081 H         1 <0>         0.1164
     64 H25         4.8845  -12.3568   -2.7621 H         1 <0>         0.1148
     65 H26         5.1598  -11.2057   -4.9213 H         1 <0>         0.1127
     66 H27         4.2605   -8.9341   -5.2290 H         1 <0>         0.1096
     67 H28         1.4992   -7.5298   -6.0594 H         1 <0>         0.4132
     68 H29         2.3459  -11.8142   -6.2076 H         1 <0>         0.0773
     69 H30         0.5661  -11.7964   -6.2016 H         1 <0>         0.0752
     70 H31        -0.6842  -11.8655   -8.2840 H         1 <0>         0.1241
     71 H32        -0.6992  -12.5759  -10.6416 H         1 <0>         0.1254
     72 H33         1.4255  -12.9615  -11.8248 H         1 <0>         0.1243
     73 H34         3.5653  -12.6359  -10.6507 H         1 <0>         0.1253
     74 H35         3.5804  -11.9175   -8.2955 H         1 <0>         0.1240
@<TRIPOS>BOND
     1    1    2 1
     2    1   42 1
     3    1   43 1
     4    1   44 1
     5    2    3 1
     6    2    4 1
     7    2   45 1
     8    3   46 1
     9    3   47 1
    10    3   48 1
    11    4    5 1
    12    4   49 1
    13    4   50 1
    14    5    6 1
    15    5    7 1
    16    5    9 1
    17    7    8 2
    18    7   51 1
    19    9   10 am
    20    9   52 1
    21   10   11 2
    22   10   12 1
    23   12   13 1
    24   12   20 1
    25   12   53 1
    26   13   14 1
    27   13   54 1
    28   13   55 1
    29   14   19 1
    30   14   15 2
    31   15   16 1
    32   15   56 1
    33   16   17 1
    34   16   18 1
    35   18   19 2
    36   18   57 1
    37   20   21 am
    38   20   58 1
    39   21   22 2
    40   21   23 1
    41   23   24 1
    42   23   31 1
    43   23   59 1
    44   24   25 1
    45   24   60 1
    46   24   61 1
    47   25   30 ar
    48   25   26 ar
    49   26   27 ar
    50   26   62 1
    51   27   28 ar
    52   27   63 1
    53   28   29 ar
    54   28   64 1
    55   29   30 ar
    56   29   65 1
    57   30   66 1
    58   31   32 am
    59   31   67 1
    60   32   33 2
    61   32   34 1
    62   34   35 1
    63   35   36 1
    64   35   68 1
    65   35   69 1
    66   36   41 ar
    67   36   37 ar
    68   37   38 ar
    69   37   70 1
    70   38   39 ar
    71   38   71 1
    72   39   40 ar
    73   39   72 1
    74   40   41 ar
    75   40   73 1
    76   41   74 1
@<TRIPOS>MOLECULE
CHEMBL368813__9
   75    77     0     0     0
SMALL
USER_CHARGES

@<TRIPOS>ATOM
      1 C1         -1.4919   -0.2815   -0.1160 C.3       1 <0>        -0.1528
      2 C2          0.0170   -0.0913    0.0507 C.3       1 <0>        -0.0902
      3 C3          0.4972   -0.8723    1.2757 C.3       1 <0>        -0.1562
      4 C4          0.7370   -0.6066   -1.1970 C.3       1 <0>        -0.1208
      5 C5          2.2304   -0.2918   -1.0907 C.3       1 <0>         0.0748
      6 H1          2.6270   -0.7186   -0.1695 H         1 <0>         0.1301
      7 C6          2.9543   -0.8853   -2.2717 C.2       1 <0>         0.3293
      8 O1          3.5683   -0.1692   -3.0257 O.2       1 <0>        -0.4450
      9 N1          2.4237    1.1604   -1.0789 N.am      1 <0>        -0.7046
     10 C7          3.5233    1.6892   -0.5064 C.2       1 <0>         0.5168
     11 O2          4.3528    0.9629   -0.0011 O.2       1 <0>        -0.5129
     12 C8          3.7222    3.1829   -0.4943 C.3       1 <0>         0.1319
     13 C9          2.5622    3.8458    0.2514 C.3       1 <0>        -0.0716
     14 C10         2.6959    5.3440    0.1582 C.2       1 <0>         0.0420
     15 C11         3.4387    6.1240    0.9665 C.2       1 <0>         0.0445
     16 N2          3.2765    7.4120    0.5325 N.pl3     1 <0>        -0.5003
     17 H2          3.6861    8.2040    0.9144 H         1 <0>         0.4656
     18 C12         2.4396    7.3742   -0.5268 C.cat     1 <0>         0.3130
     19 N3          2.1004    6.1336   -0.7479 N.pl3     1 <0>        -0.4670
     20 N4          4.9826    3.5023    0.1807 N.am      1 <0>        -0.7049
     21 C13         5.6267    4.6517   -0.1033 C.2       1 <0>         0.5221
     22 O3          5.1628    5.4216   -0.9175 O.2       1 <0>        -0.5371
     23 C14         6.9233    4.9802    0.5910 C.3       1 <0>         0.1557
     24 C15         7.9553    3.8929    0.2851 C.3       1 <0>        -0.0921
     25 C16         9.2110    4.1554    1.0759 C.ar      1 <0>        -0.0767
     26 C17        10.2138    4.9415    0.5399 C.ar      1 <0>        -0.1082
     27 C18        11.3656    5.1823    1.2653 C.ar      1 <0>        -0.1134
     28 C19        11.5144    4.6374    2.5270 C.ar      1 <0>        -0.1113
     29 C20        10.5112    3.8521    3.0634 C.ar      1 <0>        -0.1106
     30 C21         9.3576    3.6148    2.3397 C.ar      1 <0>        -0.1024
     31 N5          7.4195    6.2730    0.1126 N.am      1 <0>        -0.6997
     32 C22         8.2364    7.0108    0.8901 C.2       1 <0>         0.6477
     33 O4          8.5614    6.6038    1.9879 O.2       1 <0>        -0.5421
     34 O5          8.6924    8.1989    0.4504 O.3       1 <0>        -0.3589
     35 C23         9.5544    8.9275    1.3268 C.3       1 <0>         0.1331
     36 C24         9.9608   10.2216    0.6702 C.ar      1 <0>        -0.1043
     37 C25        11.0950   10.2701   -0.1186 C.ar      1 <0>        -0.0921
     38 C26        11.4678   11.4571   -0.7210 C.ar      1 <0>        -0.1205
     39 C27        10.7062   12.5956   -0.5348 C.ar      1 <0>        -0.1040
     40 C28         9.5715   12.5470    0.2533 C.ar      1 <0>        -0.1232
     41 C29         9.1963   11.3589    0.8521 C.ar      1 <0>        -0.0959
     42 H3         -1.8486    0.3432   -0.9350 H         1 <0>         0.0549
     43 H4         -1.7040   -1.3274   -0.3379 H         1 <0>         0.0608
     44 H5         -1.9983    0.0042    0.8060 H         1 <0>         0.0593
     45 H6          0.2370    0.9677    0.1858 H         1 <0>         0.0667
     46 H7          0.2772   -1.9312    1.1406 H         1 <0>         0.0619
     47 H8          1.5722   -0.7367    1.3945 H         1 <0>         0.0559
     48 H9         -0.0157   -0.5051    2.1646 H         1 <0>         0.0586
     49 H10         0.5978   -1.6847   -1.2776 H         1 <0>         0.0960
     50 H11         0.3251   -0.1200   -2.0812 H         1 <0>         0.0766
     51 H12         2.9239   -1.9511   -2.4438 H         1 <0>         0.1110
     52 H13         1.7603    1.7412   -1.4830 H         1 <0>         0.4032
     53 H14         3.7546    3.5535   -1.5188 H         1 <0>         0.1255
     54 H15         1.6181    3.5367   -0.1971 H         1 <0>         0.1118
     55 H16         2.5833    3.5435    1.2984 H         1 <0>         0.1242
     56 H17         4.0454    5.7963    1.7978 H         1 <0>         0.2136
     57 H18         2.1091    8.2286   -1.0987 H         1 <0>         0.2643
     58 H19         5.3537    2.8866    0.8319 H         1 <0>         0.4221
     59 H20         6.7566    5.0306    1.6670 H         1 <0>         0.1240
     60 H21         7.5497    2.9193    0.5600 H         1 <0>         0.0926
     61 H22         8.1880    3.9021   -0.7797 H         1 <0>         0.0848
     62 H23        10.0975    5.3672   -0.4459 H         1 <0>         0.1095
     63 H24        12.1494    5.7958    0.8462 H         1 <0>         0.1168
     64 H25        12.4146    4.8250    3.0935 H         1 <0>         0.1198
     65 H26        10.6276    3.4262    4.0490 H         1 <0>         0.1206
     66 H27         8.5722    3.0044    2.7603 H         1 <0>         0.1167
     67 H28         7.1600    6.5978   -0.7638 H         1 <0>         0.4136
     68 H29         9.0293    9.1417    2.2577 H         1 <0>         0.0765
     69 H30        10.4430    8.3332    1.5394 H         1 <0>         0.0801
     70 H31        11.6900    9.3806   -0.2641 H         1 <0>         0.1246
     71 H32        12.3542   11.4951   -1.3367 H         1 <0>         0.1283
     72 H33        10.9978   13.5232   -1.0048 H         1 <0>         0.1274
     73 H34         8.9767   13.4366    0.3990 H         1 <0>         0.1267
     74 H35         8.3078   11.3200    1.4648 H         1 <0>         0.1214
     75 H36         1.5095    5.8305   -1.4548 H         1 <0>         0.4622
@<TRIPOS>BOND
     1    1    2 1
     2    1   42 1
     3    1   43 1
     4    1   44 1
     5    2    3 1
     6    2    4 1
     7    2   45 1
     8    3   46 1
     9    3   47 1
    10    3   48 1
    11    4    5 1
    12    4   49 1
    13    4   50 1
    14    5    6 1
    15    5    7 1
    16    5    9 1
    17    7    8 2
    18    7   51 1
    19    9   10 am
    20    9   52 1
    21   10   11 2
    22   10   12 1
    23   12   13 1
    24   12   20 1
    25   12   53 1
    26   13   14 1
    27   13   54 1
    28   13   55 1
    29   14   19 1
    30   14   15 2
    31   15   16 1
    32   15   56 1
    33   16   17 1
    34   16   18 1
    35   18   19 2
    36   18   57 1
    37   19   75 1
    38   20   21 am
    39   20   58 1
    40   21   22 2
    41   21   23 1
    42   23   24 1
    43   23   31 1
    44   23   59 1
    45   24   25 1
    46   24   60 1
    47   24   61 1
    48   25   30 ar
    49   25   26 ar
    50   26   27 ar
    51   26   62 1
    52   27   28 ar
    53   27   63 1
    54   28   29 ar
    55   28   64 1
    56   29   30 ar
    57   29   65 1
    58   30   66 1
    59   31   32 am
    60   31   67 1
    61   32   33 2
    62   32   34 1
    63   34   35 1
    64   35   36 1
    65   35   68 1
    66   35   69 1
    67   36   41 ar
    68   36   37 ar
    69   37   38 ar
    70   37   70 1
    71   38   39 ar
    72   38   71 1
    73   39   40 ar
    74   39   72 1
    75   40   41 ar
    76   40   73 1
    77   41   74 1
@<TRIPOS>MOLECULE
CHEMBL368813__10
   74    76     0     0     0
SMALL
USER_CHARGES

@<TRIPOS>ATOM
      1 C1         -0.0187    1.5258    0.0104 C.3       1 <0>        -0.1502
      2 C2          0.0021   -0.0041    0.0020 C.3       1 <0>        -0.0940
      3 C3          0.7421   -0.5109    1.2415 C.3       1 <0>        -0.1537
      4 C4         -1.4333   -0.5336    0.0129 C.3       1 <0>        -0.1184
      5 C5         -1.4157   -2.0577   -0.1212 C.3       1 <0>         0.0752
      6 H1         -0.7891   -2.4841    0.6622 H         1 <0>         0.1262
      7 C6         -2.8192   -2.5900    0.0125 C.2       1 <0>         0.3276
      8 O1         -3.3176   -3.2130   -0.8939 O.2       1 <0>        -0.4422
      9 N1         -0.8765   -2.4263   -1.4325 N.am      1 <0>        -0.7069
     10 C7         -0.2982   -3.6308   -1.6090 C.2       1 <0>         0.5209
     11 O2         -0.2242   -4.4096   -0.6822 O.2       1 <0>        -0.5298
     12 C8          0.2565   -4.0101   -2.9579 C.3       1 <0>         0.1358
     13 C9          1.3466   -3.0144   -3.3594 C.3       1 <0>        -0.0487
     14 C10         1.8153   -3.3198   -4.7587 C.2       1 <0>        -0.0198
     15 C11         1.2533   -2.8913   -5.9050 C.2       1 <0>         0.0004
     16 N2          1.9699   -3.3819   -6.9272 N.2       1 <0>        -0.4853
     17 H2          3.5081   -4.5275   -4.5011 H         1 <0>         0.4113
     18 C12         2.9546   -4.0981   -6.4578 C.2       1 <0>         0.1950
     19 N3          2.8976   -4.0812   -5.1087 N.pl3     1 <0>        -0.5632
     20 N4          0.8270   -5.3577   -2.8901 N.am      1 <0>        -0.7097
     21 C13         0.9198   -6.1072   -4.0063 C.2       1 <0>         0.5090
     22 O3          0.5311   -5.6660   -5.0671 O.2       1 <0>        -0.4984
     23 C14         1.5067   -7.4934   -3.9365 C.3       1 <0>         0.1596
     24 C15         0.6739   -8.3524   -2.9828 C.3       1 <0>        -0.0926
     25 C16         1.3294   -9.6993   -2.8176 C.ar      1 <0>        -0.0682
     26 C17         1.0050  -10.7355   -3.6731 C.ar      1 <0>        -0.1075
     27 C18         1.6063  -11.9709   -3.5216 C.ar      1 <0>        -0.1142
     28 C19         2.5323  -12.1701   -2.5148 C.ar      1 <0>        -0.1164
     29 C20         2.8574  -11.1336   -1.6598 C.ar      1 <0>        -0.1123
     30 C21         2.2593   -9.8969   -1.8140 C.ar      1 <0>        -0.1030
     31 N5          1.4962   -8.0960   -5.2718 N.am      1 <0>        -0.6933
     32 C22         2.3796   -9.0659   -5.5804 C.2       1 <0>         0.6514
     33 O4          3.1849   -9.4406   -4.7511 O.2       1 <0>        -0.5515
     34 O5          2.3700   -9.6197   -6.8076 O.3       1 <0>        -0.3577
     35 C23         3.3343  -10.6422   -7.0655 C.3       1 <0>         0.1326
     36 C24         3.1733  -11.1395   -8.4790 C.ar      1 <0>        -0.1002
     37 C25         2.3186  -12.1921   -8.7482 C.ar      1 <0>        -0.0932
     38 C26         2.1709  -12.6483  -10.0447 C.ar      1 <0>        -0.1233
     39 C27         2.8776  -12.0516  -11.0721 C.ar      1 <0>        -0.1074
     40 C28         3.7316  -10.9984  -10.8030 C.ar      1 <0>        -0.1228
     41 C29         3.8760  -10.5395   -9.5071 C.ar      1 <0>        -0.0932
     42 H3          1.0039    1.9031    0.0027 H         1 <0>         0.0576
     43 H4         -0.5459    1.8868   -0.8726 H         1 <0>         0.0563
     44 H5         -0.5289    1.8773    0.9072 H         1 <0>         0.0572
     45 H6          0.5123   -0.3556   -0.8948 H         1 <0>         0.0726
     46 H7          0.7568   -1.6008    1.2356 H         1 <0>         0.0562
     47 H8          1.7647   -0.1336    1.2338 H         1 <0>         0.0571
     48 H9          0.2319   -0.1594    2.1383 H         1 <0>         0.0584
     49 H10        -1.9156   -0.2570    0.9504 H         1 <0>         0.0911
     50 H11        -1.9862   -0.1019   -0.8214 H         1 <0>         0.0768
     51 H12        -3.3792   -2.4143    0.9191 H         1 <0>         0.1053
     52 H13        -0.9356   -1.8035   -2.1738 H         1 <0>         0.4068
     53 H14        -0.5435   -3.9910   -3.6981 H         1 <0>         0.1242
     54 H15         0.9447   -2.0017   -3.3237 H         1 <0>         0.1004
     55 H16         2.1860   -3.0967   -2.6689 H         1 <0>         0.0803
     56 H17         0.3788   -2.2628   -5.9869 H         1 <0>         0.1614
     57 H18         3.6946   -4.6158   -7.0501 H         1 <0>         0.1992
     58 H19         1.1379   -5.7106   -2.0417 H         1 <0>         0.4111
     59 H20         2.5323   -7.4359   -3.5720 H         1 <0>         0.1161
     60 H21         0.6080   -7.8590   -2.0131 H         1 <0>         0.0911
     61 H22        -0.3276   -8.4835   -3.3926 H         1 <0>         0.0838
     62 H23         0.2815  -10.5799   -4.4597 H         1 <0>         0.1104
     63 H24         1.3523  -12.7807   -4.1896 H         1 <0>         0.1149
     64 H25         3.0016  -13.1355   -2.3959 H         1 <0>         0.1169
     65 H26         3.5806  -11.2893   -0.8730 H         1 <0>         0.1179
     66 H27         2.5160   -9.0861   -1.1484 H         1 <0>         0.1160
     67 H28         0.8534   -7.7969   -5.9338 H         1 <0>         0.4160
     68 H29         4.3376  -10.2367   -6.9351 H         1 <0>         0.0755
     69 H30         3.1830  -11.4680   -6.3704 H         1 <0>         0.0773
     70 H31         1.7665  -12.6583   -7.9455 H         1 <0>         0.1236
     71 H32         1.5037  -13.4711  -10.2550 H         1 <0>         0.1258
     72 H33         2.7628  -12.4085  -12.0849 H         1 <0>         0.1251
     73 H34         4.2839  -10.5325  -11.6056 H         1 <0>         0.1262
     74 H35         4.5404   -9.7142   -9.2974 H         1 <0>         0.1239
@<TRIPOS>BOND
     1    1    2 1
     2    1   42 1
     3    1   43 1
     4    1   44 1
     5    2    3 1
     6    2    4 1
     7    2   45 1
     8    3   46 1
     9    3   47 1
    10    3   48 1
    11    4    5 1
    12    4   49 1
    13    4   50 1
    14    5    6 1
    15    5    7 1
    16    5    9 1
    17    7    8 2
    18    7   51 1
    19    9   10 am
    20    9   52 1
    21   10   11 2
    22   10   12 1
    23   12   13 1
    24   12   20 1
    25   12   53 1
    26   13   54 1
    27   13   55 1
    28   13   14 1
    29   14   15 2
    30   14   19 1
    31   15   16 1
    32   15   56 1
    33   16   18 2
    34   17   19 1
    35   18   57 1
    36   18   19 1
    37   20   21 am
    38   20   58 1
    39   21   22 2
    40   21   23 1
    41   23   24 1
    42   23   31 1
    43   23   59 1
    44   24   25 1
    45   24   60 1
    46   24   61 1
    47   25   30 ar
    48   25   26 ar
    49   26   27 ar
    50   26   62 1
    51   27   28 ar
    52   27   63 1
    53   28   29 ar
    54   28   64 1
    55   29   30 ar
    56   29   65 1
    57   30   66 1
    58   31   32 am
    59   31   67 1
    60   32   33 2
    61   32   34 1
    62   34   35 1
    63   35   36 1
    64   35   68 1
    65   35   69 1
    66   36   41 ar
    67   36   37 ar
    68   37   38 ar
    69   37   70 1
    70   38   39 ar
    71   38   71 1
    72   39   40 ar
    73   39   72 1
    74   40   41 ar
    75   40   73 1
    76   41   74 1
@<TRIPOS>MOLECULE
CHEMBL368813__11
   74    76     0     0     0
SMALL
USER_CHARGES

@<TRIPOS>ATOM
      1 C1         -0.0187    1.5258    0.0104 C.3       1 <0>        -0.1496
      2 C2          0.0021   -0.0041    0.0020 C.3       1 <0>        -0.0942
      3 C3          0.7421   -0.5109    1.2415 C.3       1 <0>        -0.1536
      4 C4         -1.4333   -0.5336    0.0129 C.3       1 <0>        -0.1176
      5 C5         -1.4157   -2.0577   -0.1212 C.3       1 <0>         0.0752
      6 H1         -0.7891   -2.4841    0.6622 H         1 <0>         0.1260
      7 C6         -2.8192   -2.5900    0.0125 C.2       1 <0>         0.3275
      8 O1         -3.3176   -3.2130   -0.8939 O.2       1 <0>        -0.4429
      9 N1         -0.8765   -2.4263   -1.4325 N.am      1 <0>        -0.7093
     10 C7         -0.2982   -3.6308   -1.6090 C.2       1 <0>         0.5198
     11 O2         -0.2242   -4.4096   -0.6822 O.2       1 <0>        -0.5303
     12 C8          0.2565   -4.0101   -2.9579 C.3       1 <0>         0.1452
     13 C9          1.3466   -3.0144   -3.3594 C.3       1 <0>        -0.0391
     14 C10         1.8153   -3.3198   -4.7587 C.2       1 <0>         0.0017
     15 C11         1.8476   -2.4535   -5.7892 C.2       1 <0>        -0.0522
     16 N2          2.3387   -3.1388   -6.8675 N.pl3     1 <0>        -0.5706
     17 H2          2.4802   -2.7842   -7.7592 H         1 <0>         0.4175
     18 C12         2.5896   -4.4010   -6.4581 C.2       1 <0>         0.1907
     19 N3          2.2788   -4.5005   -5.1945 N.2       1 <0>        -0.4514
     20 N4          0.8270   -5.3577   -2.8901 N.am      1 <0>        -0.7084
     21 C13         0.9198   -6.1072   -4.0063 C.2       1 <0>         0.5460
     22 O3          0.5311   -5.6660   -5.0671 O.2       1 <0>        -0.5099
     23 C14         1.5067   -7.4934   -3.9365 C.3       1 <0>         0.1660
     24 C15         0.6739   -8.3524   -2.9828 C.3       1 <0>        -0.0953
     25 C16         1.3294   -9.6993   -2.8176 C.ar      1 <0>        -0.0645
     26 C17         1.0050  -10.7355   -3.6731 C.ar      1 <0>        -0.1086
     27 C18         1.6063  -11.9709   -3.5216 C.ar      1 <0>        -0.1154
     28 C19         2.5323  -12.1701   -2.5148 C.ar      1 <0>        -0.1189
     29 C20         2.8574  -11.1336   -1.6598 C.ar      1 <0>        -0.1126
     30 C21         2.2593   -9.8969   -1.8140 C.ar      1 <0>        -0.1025
     31 N5          1.4962   -8.0960   -5.2718 N.am      1 <0>        -0.6876
     32 C22         2.3796   -9.0659   -5.5804 C.2       1 <0>         0.6501
     33 O4          3.1849   -9.4406   -4.7511 O.2       1 <0>        -0.5515
     34 O5          2.3700   -9.6197   -6.8076 O.3       1 <0>        -0.3614
     35 C23         3.3343  -10.6422   -7.0655 C.3       1 <0>         0.1322
     36 C24         3.1733  -11.1395   -8.4790 C.ar      1 <0>        -0.0978
     37 C25         2.3186  -12.1921   -8.7482 C.ar      1 <0>        -0.0934
     38 C26         2.1709  -12.6483  -10.0447 C.ar      1 <0>        -0.1233
     39 C27         2.8776  -12.0516  -11.0721 C.ar      1 <0>        -0.1089
     40 C28         3.7316  -10.9984  -10.8030 C.ar      1 <0>        -0.1237
     41 C29         3.8760  -10.5395   -9.5071 C.ar      1 <0>        -0.0943
     42 H3          1.0039    1.9031    0.0027 H         1 <0>         0.0574
     43 H4         -0.5459    1.8868   -0.8726 H         1 <0>         0.0552
     44 H5         -0.5289    1.8773    0.9072 H         1 <0>         0.0568
     45 H6          0.5123   -0.3556   -0.8948 H         1 <0>         0.0735
     46 H7          0.2319   -0.1594    2.1383 H         1 <0>         0.0577
     47 H8          0.7568   -1.6008    1.2356 H         1 <0>         0.0573
     48 H9          1.7647   -0.1336    1.2338 H         1 <0>         0.0571
     49 H10        -1.9156   -0.2570    0.9504 H         1 <0>         0.0900
     50 H11        -1.9862   -0.1019   -0.8214 H         1 <0>         0.0754
     51 H12        -3.3792   -2.4143    0.9191 H         1 <0>         0.1040
     52 H13        -0.9356   -1.8035   -2.1738 H         1 <0>         0.4052
     53 H14        -0.5435   -3.9910   -3.6981 H         1 <0>         0.1146
     54 H15         0.9447   -2.0017   -3.3237 H         1 <0>         0.0842
     55 H16         2.1860   -3.0967   -2.6689 H         1 <0>         0.0827
     56 H17         1.5441   -1.4172   -5.7689 H         1 <0>         0.1694
     57 H18         2.9857   -5.1954   -7.0733 H         1 <0>         0.1962
     58 H19         1.1379   -5.7106   -2.0417 H         1 <0>         0.4070
     59 H20         2.5323   -7.4359   -3.5720 H         1 <0>         0.1174
     60 H21         0.6080   -7.8590   -2.0131 H         1 <0>         0.0903
     61 H22        -0.3276   -8.4835   -3.3926 H         1 <0>         0.0807
     62 H23         0.2815  -10.5799   -4.4597 H         1 <0>         0.1096
     63 H24         1.3523  -12.7807   -4.1896 H         1 <0>         0.1133
     64 H25         3.0016  -13.1355   -2.3959 H         1 <0>         0.1153
     65 H26         3.5806  -11.2893   -0.8730 H         1 <0>         0.1169
     66 H27         2.5160   -9.0861   -1.1484 H         1 <0>         0.1168
     67 H28         0.8534   -7.7969   -5.9338 H         1 <0>         0.4123
     68 H29         4.3376  -10.2367   -6.9351 H         1 <0>         0.0751
     69 H30         3.1830  -11.4680   -6.3704 H         1 <0>         0.0769
     70 H31         1.7665  -12.6583   -7.9455 H         1 <0>         0.1241
     71 H32         1.5037  -13.4711  -10.2550 H         1 <0>         0.1255
     72 H33         2.7628  -12.4085  -12.0849 H         1 <0>         0.1243
     73 H34         4.2839  -10.5325  -11.6056 H         1 <0>         0.1251
     74 H35         4.5404   -9.7142   -9.2974 H         1 <0>         0.1237
@<TRIPOS>BOND
     1    1    2 1
     2    1   42 1
     3    1   43 1
     4    1   44 1
     5    2    3 1
     6    2    4 1
     7    2   45 1
     8    3   46 1
     9    3   47 1
    10    3   48 1
    11    4    5 1
    12    4   49 1
    13    4   50 1
    14    5    6 1
    15    5    7 1
    16    5    9 1
    17    7    8 2
    18    7   51 1
    19    9   10 am
    20    9   52 1
    21   10   11 2
    22   10   12 1
    23   12   13 1
    24   12   20 1
    25   12   53 1
    26   13   14 1
    27   13   54 1
    28   13   55 1
    29   14   19 1
    30   14   15 2
    31   15   16 1
    32   15   56 1
    33   16   17 1
    34   16   18 1
    35   18   19 2
    36   18   57 1
    37   20   21 am
    38   20   58 1
    39   21   22 2
    40   21   23 1
    41   23   24 1
    42   23   31 1
    43   23   59 1
    44   24   25 1
    45   24   60 1
    46   24   61 1
    47   25   30 ar
    48   25   26 ar
    49   26   27 ar
    50   26   62 1
    51   27   28 ar
    52   27   63 1
    53   28   29 ar
    54   28   64 1
    55   29   30 ar
    56   29   65 1
    57   30   66 1
    58   31   32 am
    59   31   67 1
    60   32   33 2
    61   32   34 1
    62   34   35 1
    63   35   36 1
    64   35   68 1
    65   35   69 1
    66   36   41 ar
    67   36   37 ar
    68   37   38 ar
    69   37   70 1
    70   38   39 ar
    71   38   71 1
    72   39   40 ar
    73   39   72 1
    74   40   41 ar
    75   40   73 1
    76   41   74 1
@<TRIPOS>MOLECULE
CHEMBL82
   28    28     0     0     0
SMALL
USER_CHARGES

@<TRIPOS>ATOM
      1 C1         -0.0187    1.5258    0.0104 C.3       1 <0>        -0.1499
      2 C2          0.0021   -0.0041    0.0020 C.3       1 <0>        -0.0861
      3 H1         -1.0205   -0.3814    0.0098 H         1 <0>         0.0991
      4 C3          0.7421   -0.5109    1.2415 C.3       1 <0>        -0.0413
      5 S1         -0.1871   -0.0517    2.7303 S.3       1 <0>        -0.2560
      6 C4          0.7074   -0.4901   -1.2379 C.2       1 <0>         0.5406
      7 O1          1.7039   -1.1744   -1.1398 O.2       1 <0>        -0.5341
      8 N1          0.2309   -0.1642   -2.4557 N.am      1 <0>        -0.5870
      9 C5         -0.9612    0.6622   -2.7190 C.3       1 <0>         0.1001
     10 C6         -1.4323    0.2395   -4.1329 C.3       1 <0>        -0.1344
     11 C7         -0.0792    0.0101   -4.8565 C.3       1 <0>        -0.1069
     12 C8          0.8176   -0.5687   -3.7417 C.3       1 <0>         0.0652
     13 H2          0.8397   -1.6561   -3.8134 H         1 <0>         0.0661
     14 C9          2.2140   -0.0156   -3.8646 C.2       1 <0>         0.4962
     15 O2          2.9386   -0.3858   -4.7726 O.co2     1 <0>        -0.7023
     16 O3          2.6192    0.8020   -3.0561 O.co2     1 <0>        -0.6788
     17 H3          1.0039    1.9031    0.0027 H         1 <0>         0.0664
     18 H4         -0.5459    1.8868   -0.8726 H         1 <0>         0.0680
     19 H5         -0.5289    1.8773    0.9072 H         1 <0>         0.0715
     20 H6          0.8346   -1.5958    1.1912 H         1 <0>         0.0908
     21 H7          1.7350   -0.0630    1.2804 H         1 <0>         0.0927
     22 H8          0.5521   -0.5447    3.7401 H         1 <0>         0.0864
     23 H9         -1.7373    0.4540   -1.9825 H         1 <0>         0.0699
     24 H10        -0.6995    1.7202   -2.7069 H         1 <0>         0.0682
     25 H11        -2.0144   -0.6812   -4.0917 H         1 <0>         0.0709
     26 H12        -2.0003    1.0379   -4.6104 H         1 <0>         0.0779
     27 H13        -0.1941   -0.7041   -5.6719 H         1 <0>         0.0749
     28 H14         0.3271    0.9530   -5.2227 H         1 <0>         0.0719
@<TRIPOS>BOND
     1    1    2 1
     2    1   17 1
     3    1   18 1
     4    1   19 1
     5    2    3 1
     6    2    4 1
     7    2    6 1
     8    4    5 1
     9    4   20 1
    10    4   21 1
    11    5   22 1
    12    6    7 2
    13    6    8 am
    14    8   12 1
    15    8    9 1
    16    9   10 1
    17    9   23 1
    18    9   24 1
    19   10   11 1
    20   10   25 1
    21   10   26 1
    22   11   12 1
    23   11   27 1
    24   11   28 1
    25   12   13 1
    26   12   14 1
    27   14   15 2
    28   14   16 1
@<TRIPOS>MOLECULE
CHEMBL64984
   83    84     0     0     0
SMALL
USER_CHARGES

@<TRIPOS>ATOM
      1 C1         -0.0187    1.5258    0.0104 C.3       1 <0>        -0.1493
      2 C2          0.0021   -0.0041    0.0020 C.3       1 <0>        -0.0940
      3 C3          0.7421   -0.5109    1.2415 C.3       1 <0>        -0.1494
      4 C4         -1.4333   -0.5336    0.0129 C.3       1 <0>        -0.1453
      5 C5         -1.4157   -2.0577   -0.1212 C.3       1 <0>         0.0766
      6 H1         -0.7891   -2.4841    0.6622 H         1 <0>         0.1008
      7 C6         -2.8406   -2.5981    0.0146 C.3       1 <0>         0.0672
      8 H2         -3.4671   -2.1717   -0.7688 H         1 <0>         0.1139
      9 C7         -2.8229   -4.1221   -0.1195 C.3       1 <0>         0.1179
     10 H3         -2.4217   -4.3964   -1.0952 H         1 <0>         0.1107
     11 C8         -4.2478   -4.6626    0.0163 C.3       1 <0>        -0.1229
     12 C9         -4.2480   -6.1707   -0.2413 C.3       1 <0>        -0.0811
     13 C10        -3.8496   -6.4400   -1.6938 C.3       1 <0>        -0.1052
     14 C11        -3.8498   -7.9482   -1.9515 C.3       1 <0>        -0.1109
     15 C12        -5.2497   -8.5094   -1.6941 C.3       1 <0>        -0.1211
     16 C13        -5.6480   -8.2401   -0.2416 C.3       1 <0>        -0.1173
     17 C14        -5.6479   -6.7319    0.0160 C.3       1 <0>        -0.1155
     18 N1         -1.9808   -4.6953    0.9334 N.am      1 <0>        -0.7179
     19 C15        -1.4030   -5.8995    0.7534 C.2       1 <0>         0.5152
     20 O1         -1.5802   -6.5087   -0.2802 O.2       1 <0>        -0.5087
     21 C16        -0.5368   -6.4891    1.8365 C.3       1 <0>         0.1329
     22 H4         -1.1255   -6.6127    2.7456 H         1 <0>         0.1166
     23 C17         0.6403   -5.5522    2.1147 C.3       1 <0>        -0.0992
     24 C18         1.4376   -6.0794    3.2798 C.2       1 <0>        -0.1396
     25 C19         2.7228   -6.2970    3.1491 C.2       1 <0>        -0.1932
     26 N2         -0.0307   -7.7932    1.4014 N.am      1 <0>        -0.7069
     27 C20         0.3222   -8.7183    2.3157 C.2       1 <0>         0.5212
     28 O2          0.2209   -8.4712    3.4987 O.2       1 <0>        -0.5201
     29 C21         0.8428  -10.0598    1.8681 C.3       1 <0>         0.1006
     30 N3          1.1538  -10.8794    3.0419 N.pl3     1 <0>        -1.1149
     31 S1          1.3869  -12.5104    2.8747 S.o2      1 <0>         2.7893
     32 O3          1.6935  -13.0115    4.1686 O.2       1 <0>        -0.9652
     33 O4          0.2960  -13.0000    2.1069 O.2       1 <0>        -0.9684
     34 N4          2.7462  -12.7187    1.9521 N.pl3     1 <0>        -1.0090
     35 C22         2.6608  -12.8020    0.4855 C.3       1 <0>         0.0825
     36 C23         3.6728  -11.8191   -0.1143 C.3       1 <0>         0.0471
     37 O5          4.9593  -12.0583    0.4613 O.3       1 <0>        -0.3737
     38 C24         5.0183  -11.8414    1.8732 C.3       1 <0>         0.0474
     39 C25         4.0759  -12.8198    2.5744 C.3       1 <0>         0.0864
     40 O6         -3.3665   -2.2385    1.2937 O.3       1 <0>        -0.5427
     41 O7         -0.8897   -2.4172   -1.4003 O.3       1 <0>        -0.5487
     42 H5          1.0039    1.9031    0.0027 H         1 <0>         0.0551
     43 H6         -0.5459    1.8868   -0.8726 H         1 <0>         0.0534
     44 H7         -0.5289    1.8773    0.9072 H         1 <0>         0.0540
     45 H8          0.5123   -0.3556   -0.8948 H         1 <0>         0.0756
     46 H9          0.7568   -1.6008    1.2356 H         1 <0>         0.0529
     47 H10         1.7647   -0.1336    1.2338 H         1 <0>         0.0551
     48 H11         0.2319   -0.1594    2.1383 H         1 <0>         0.0539
     49 H12        -1.9156   -0.2570    0.9504 H         1 <0>         0.0802
     50 H13        -1.9862   -0.1019   -0.8214 H         1 <0>         0.0662
     51 H14        -4.6166   -4.4659    1.0230 H         1 <0>         0.0694
     52 H15        -4.8941   -4.1698   -0.7101 H         1 <0>         0.0707
     53 H16        -3.5345   -6.6535    0.4265 H         1 <0>         0.0738
     54 H17        -4.5631   -5.9573   -2.3617 H         1 <0>         0.0455
     55 H18        -2.8523   -6.0402   -1.8772 H         1 <0>         0.0785
     56 H19        -3.5660   -8.1400   -2.9863 H         1 <0>         0.0538
     57 H20        -3.1364   -8.4309   -1.2836 H         1 <0>         0.0630
     58 H21        -5.9631   -8.0266   -2.3620 H         1 <0>         0.0574
     59 H22        -5.2498   -9.5838   -1.8777 H         1 <0>         0.0569
     60 H23        -6.6453   -8.6399   -0.0583 H         1 <0>         0.0574
     61 H24        -4.9346   -8.7229    0.4262 H         1 <0>         0.0577
     62 H25        -5.9316   -6.5401    1.0508 H         1 <0>         0.0552
     63 H26        -6.3613   -6.2492   -0.6519 H         1 <0>         0.0583
     64 H27        -1.8392   -4.2080    1.7601 H         1 <0>         0.3936
     65 H28         1.2783   -5.4985    1.2325 H         1 <0>         0.0781
     66 H29         0.2644   -4.5570    2.3523 H         1 <0>         0.0833
     67 H30         0.9494   -6.2779    4.2225 H         1 <0>         0.1178
     68 H31         3.2110   -6.0985    2.2064 H         1 <0>         0.0917
     69 H32         3.2941   -6.6748    3.9841 H         1 <0>         0.0970
     70 H33         0.0503   -7.9908    0.4552 H         1 <0>         0.4127
     71 H34         0.0853  -10.5609    1.2654 H         1 <0>         0.1106
     72 H35         1.7456   -9.9193    1.2736 H         1 <0>         0.0938
     73 H36         1.2231  -10.4668    3.9170 H         1 <0>         0.4276
     74 H37         2.8967  -13.8154    0.1610 H         1 <0>         0.0864
     75 H38         1.6547  -12.5368    0.1607 H         1 <0>         0.0984
     76 H39         3.7244  -11.9629   -1.1936 H         1 <0>         0.1094
     77 H40         3.3609  -10.7975    0.1030 H         1 <0>         0.0543
     78 H41         6.0379  -12.0014    2.2238 H         1 <0>         0.1088
     79 H42         4.7113  -10.8199    2.0977 H         1 <0>         0.0563
     80 H43         4.0063  -12.5665    3.6323 H         1 <0>         0.0995
     81 H44         4.4567  -13.8351    2.4638 H         1 <0>         0.0847
     82 H45        -2.8578   -2.5847    2.0396 H         1 <0>         0.3699
     83 H46        -1.3985   -2.0711   -2.1462 H         1 <0>         0.3757
@<TRIPOS>BOND
     1    1    2 1
     2    1   42 1
     3    1   43 1
     4    1   44 1
     5    2    3 1
     6    2    4 1
     7    2   45 1
     8    3   46 1
     9    3   47 1
    10    3   48 1
    11    4    5 1
    12    4   49 1
    13    4   50 1
    14    5    6 1
    15    5    7 1
    16    5   41 1
    17    7    8 1
    18    7    9 1
    19    7   40 1
    20    9   10 1
    21    9   11 1
    22    9   18 1
    23   11   12 1
    24   11   51 1
    25   11   52 1
    26   12   17 1
    27   12   13 1
    28   12   53 1
    29   13   14 1
    30   13   54 1
    31   13   55 1
    32   14   15 1
    33   14   56 1
    34   14   57 1
    35   15   16 1
    36   15   58 1
    37   15   59 1
    38   16   17 1
    39   16   60 1
    40   16   61 1
    41   17   62 1
    42   17   63 1
    43   18   19 am
    44   18   64 1
    45   19   20 2
    46   19   21 1
    47   21   22 1
    48   21   23 1
    49   21   26 1
    50   23   24 1
    51   23   65 1
    52   23   66 1
    53   24   25 2
    54   24   67 1
    55   25   68 1
    56   25   69 1
    57   26   27 am
    58   26   70 1
    59   27   28 2
    60   27   29 1
    61   29   30 1
    62   29   71 1
    63   29   72 1
    64   30   31 1
    65   30   73 1
    66   31   32 2
    67   31   33 2
    68   31   34 1
    69   34   39 1
    70   34   35 1
    71   35   36 1
    72   35   74 1
    73   35   75 1
    74   36   37 1
    75   36   76 1
    76   36   77 1
    77   37   38 1
    78   38   39 1
    79   38   78 1
    80   38   79 1
    81   39   80 1
    82   39   81 1
    83   40   82 1
    84   41   83 1
@<TRIPOS>MOLECULE
CHEMBL64984__1
   82    83     0     0     0
SMALL
USER_CHARGES

@<TRIPOS>ATOM
      1 C1         -0.0187    1.5258    0.0104 C.3       1 <0>        -0.1476
      2 C2          0.0021   -0.0041    0.0020 C.3       1 <0>        -0.0946
      3 C3          0.7421   -0.5109    1.2415 C.3       1 <0>        -0.1503
      4 C4         -1.4333   -0.5336    0.0129 C.3       1 <0>        -0.1437
      5 C5         -1.4157   -2.0577   -0.1212 C.3       1 <0>         0.0752
      6 H1         -0.7891   -2.4841    0.6622 H         1 <0>         0.1035
      7 C6         -2.8406   -2.5981    0.0146 C.3       1 <0>         0.0690
      8 H2         -3.4671   -2.1717   -0.7688 H         1 <0>         0.1104
      9 C7         -2.8229   -4.1221   -0.1195 C.3       1 <0>         0.1175
     10 H3         -2.4217   -4.3964   -1.0952 H         1 <0>         0.1082
     11 C8         -4.2478   -4.6626    0.0163 C.3       1 <0>        -0.1199
     12 C9         -4.2480   -6.1707   -0.2413 C.3       1 <0>        -0.0845
     13 C10        -3.8496   -6.4400   -1.6938 C.3       1 <0>        -0.1025
     14 C11        -3.8498   -7.9482   -1.9515 C.3       1 <0>        -0.1143
     15 C12        -5.2497   -8.5094   -1.6941 C.3       1 <0>        -0.1185
     16 C13        -5.6480   -8.2401   -0.2416 C.3       1 <0>        -0.1191
     17 C14        -5.6479   -6.7319    0.0160 C.3       1 <0>        -0.1124
     18 N1         -1.9808   -4.6953    0.9334 N.am      1 <0>        -0.7240
     19 C15        -1.4030   -5.8995    0.7534 C.2       1 <0>         0.5162
     20 O1         -1.5802   -6.5087   -0.2802 O.2       1 <0>        -0.5093
     21 C16        -0.5368   -6.4891    1.8365 C.3       1 <0>         0.1361
     22 H4         -1.1255   -6.6127    2.7456 H         1 <0>         0.1082
     23 C17         0.6403   -5.5522    2.1147 C.3       1 <0>        -0.0944
     24 C18         1.4376   -6.0794    3.2798 C.2       1 <0>        -0.1343
     25 C19         2.7228   -6.2970    3.1491 C.2       1 <0>        -0.1897
     26 N2         -0.0307   -7.7932    1.4014 N.am      1 <0>        -0.7318
     27 C20         0.3222   -8.7183    2.3157 C.2       1 <0>         0.5376
     28 O2          0.2209   -8.4712    3.4987 O.2       1 <0>        -0.5109
     29 C21         0.8428  -10.0598    1.8681 C.3       1 <0>         0.1422
     30 N3          1.1538  -10.8794    3.0419 N.2       1 <0>        -1.1573
     31 S1          1.7473  -12.4131    2.8472 S.o2      1 <0>         2.6916
     32 O3          0.7103  -13.1768    2.2467 O.2       1 <0>        -1.0753
     33 O4          3.0336  -12.2790    2.2582 O.2       1 <0>        -1.0753
     34 N4          1.9831  -13.0426    4.3606 N.pl3     1 <0>        -0.9884
     35 C22         3.2657  -12.8706    5.0612 C.3       1 <0>         0.1023
     36 C23         2.9798  -12.3338    6.4683 C.3       1 <0>         0.0498
     37 O5          2.0158  -13.1750    7.1062 O.3       1 <0>        -0.3890
     38 C24         0.7447  -13.2085    6.4527 C.3       1 <0>         0.0498
     39 C25         0.9142  -13.7853    5.0471 C.3       1 <0>         0.1019
     40 O6         -3.3665   -2.2385    1.2937 O.3       1 <0>        -0.5459
     41 O7         -0.8897   -2.4172   -1.4003 O.3       1 <0>        -0.5463
     42 H5          1.0039    1.9031    0.0027 H         1 <0>         0.0539
     43 H6         -0.5459    1.8868   -0.8726 H         1 <0>         0.0518
     44 H7         -0.5289    1.8773    0.9072 H         1 <0>         0.0531
     45 H8          0.5123   -0.3556   -0.8948 H         1 <0>         0.0756
     46 H9          0.2319   -0.1594    2.1383 H         1 <0>         0.0534
     47 H10         0.7568   -1.6008    1.2356 H         1 <0>         0.0566
     48 H11         1.7647   -0.1336    1.2338 H         1 <0>         0.0542
     49 H12        -1.9156   -0.2570    0.9504 H         1 <0>         0.0794
     50 H13        -1.9862   -0.1019   -0.8214 H         1 <0>         0.0640
     51 H14        -4.6166   -4.4659    1.0230 H         1 <0>         0.0677
     52 H15        -4.8941   -4.1698   -0.7101 H         1 <0>         0.0660
     53 H16        -3.5345   -6.6535    0.4265 H         1 <0>         0.0790
     54 H17        -4.5631   -5.9573   -2.3617 H         1 <0>         0.0415
     55 H18        -2.8523   -6.0402   -1.8772 H         1 <0>         0.0791
     56 H19        -3.5660   -8.1400   -2.9863 H         1 <0>         0.0524
     57 H20        -3.1364   -8.4309   -1.2836 H         1 <0>         0.0688
     58 H21        -5.9631   -8.0266   -2.3620 H         1 <0>         0.0538
     59 H22        -5.2498   -9.5838   -1.8777 H         1 <0>         0.0563
     60 H23        -6.6453   -8.6399   -0.0583 H         1 <0>         0.0551
     61 H24        -4.9346   -8.7229    0.4262 H         1 <0>         0.0622
     62 H25        -5.9316   -6.5401    1.0508 H         1 <0>         0.0543
     63 H26        -6.3613   -6.2492   -0.6519 H         1 <0>         0.0547
     64 H27        -1.8392   -4.2080    1.7601 H         1 <0>         0.3917
     65 H28         1.2783   -5.4985    1.2325 H         1 <0>         0.0717
     66 H29         0.2644   -4.5570    2.3523 H         1 <0>         0.0713
     67 H30         0.9494   -6.2779    4.2225 H         1 <0>         0.1158
     68 H31         3.2110   -6.0985    2.2064 H         1 <0>         0.0871
     69 H32         3.2941   -6.6748    3.9841 H         1 <0>         0.0952
     70 H33         0.0503   -7.9908    0.4552 H         1 <0>         0.4023
     71 H34         0.0853  -10.5609    1.2654 H         1 <0>         0.0201
     72 H35         1.7456   -9.9193    1.2736 H         1 <0>         0.0197
     73 H36         3.7773  -13.8305    5.1314 H         1 <0>         0.0570
     74 H37         3.8889  -12.1608    4.5171 H         1 <0>         0.0919
     75 H38         3.9012  -12.3295    7.0506 H         1 <0>         0.0927
     76 H39         2.5878  -11.3191    6.3983 H         1 <0>         0.0621
     77 H40         0.0581  -13.8336    7.0237 H         1 <0>         0.0931
     78 H41         0.3446  -12.1971    6.3826 H         1 <0>         0.0618
     79 H42        -0.0190  -13.6810    4.4937 H         1 <0>         0.0920
     80 H43         1.1851  -14.8389    5.1159 H         1 <0>         0.0567
     81 H44        -2.8578   -2.5847    2.0396 H         1 <0>         0.3718
     82 H45        -1.3985   -2.0711   -2.1462 H         1 <0>         0.3727
@<TRIPOS>BOND
     1    1    2 1
     2    1   42 1
     3    1   43 1
     4    1   44 1
     5    2    3 1
     6    2    4 1
     7    2   45 1
     8    3   46 1
     9    3   47 1
    10    3   48 1
    11    4    5 1
    12    4   49 1
    13    4   50 1
    14    5    6 1
    15    5    7 1
    16    5   41 1
    17    7    8 1
    18    7    9 1
    19    7   40 1
    20    9   10 1
    21    9   11 1
    22    9   18 1
    23   11   12 1
    24   11   51 1
    25   11   52 1
    26   12   17 1
    27   12   13 1
    28   12   53 1
    29   13   14 1
    30   13   54 1
    31   13   55 1
    32   14   15 1
    33   14   56 1
    34   14   57 1
    35   15   16 1
    36   15   58 1
    37   15   59 1
    38   16   17 1
    39   16   60 1
    40   16   61 1
    41   17   62 1
    42   17   63 1
    43   18   19 am
    44   18   64 1
    45   19   20 2
    46   19   21 1
    47   21   22 1
    48   21   23 1
    49   21   26 1
    50   23   24 1
    51   23   65 1
    52   23   66 1
    53   24   25 2
    54   24   67 1
    55   25   68 1
    56   25   69 1
    57   26   27 am
    58   26   70 1
    59   27   28 2
    60   27   29 1
    61   29   30 1
    62   29   71 1
    63   29   72 1
    64   30   31 1
    65   31   32 2
    66   31   33 2
    67   31   34 1
    68   34   39 1
    69   34   35 1
    70   35   36 1
    71   35   73 1
    72   35   74 1
    73   36   37 1
    74   36   75 1
    75   36   76 1
    76   37   38 1
    77   38   39 1
    78   38   77 1
    79   38   78 1
    80   39   79 1
    81   39   80 1
    82   40   81 1
    83   41   82 1
@<TRIPOS>MOLECULE
CHEMBL144812
   85    87     0     0     0
SMALL
USER_CHARGES

@<TRIPOS>ATOM
      1 C1          0.3330    1.5347   -0.8808 C.3       1 <0>        -0.1526
      2 C2          0.2072    0.0342   -0.6097 C.3       1 <0>        -0.1280
      3 C3          0.9576   -0.7444   -1.6922 C.3       1 <0>        -0.1243
      4 C4          0.9162   -2.2388   -1.3668 C.3       1 <0>         0.1370
      5 H1          1.3034   -2.4025   -0.3611 H         1 <0>         0.0936
      6 C5          1.7627   -2.9927   -2.3598 C.2       1 <0>         0.4784
      7 O1          1.2452   -3.7800   -3.1235 O.2       1 <0>        -0.4733
      8 N1          3.0949   -2.7920   -2.3993 N.am      1 <0>        -0.7270
      9 C6          3.9178   -3.5248   -3.3647 C.3       1 <0>         0.1171
     10 H2          3.3574   -3.6624   -4.2894 H         1 <0>         0.1097
     11 C7          5.1930   -2.7306   -3.6545 C.3       1 <0>        -0.1187
     12 C8          4.8288   -1.4166   -4.3484 C.3       1 <0>        -0.0852
     13 C9          4.2180   -1.7157   -5.7189 C.3       1 <0>        -0.1168
     14 C10         3.8537   -0.4016   -6.4127 C.3       1 <0>        -0.1188
     15 C11         5.1139    0.4476   -6.5904 C.3       1 <0>        -0.1207
     16 C12         5.7248    0.7468   -5.2199 C.3       1 <0>        -0.1195
     17 C13         6.0890   -0.5673   -4.5260 C.3       1 <0>        -0.1142
     18 C14         4.2887   -4.8913   -2.7850 C.3       1 <0>         0.0668
     19 H3          4.9010   -5.4366   -3.5033 H         1 <0>         0.1089
     20 C15         3.0135   -5.6855   -2.4952 C.3       1 <0>         0.1152
     21 H4          2.4012   -5.1403   -1.7769 H         1 <0>         0.0911
     22 C16         3.3844   -7.0521   -1.9155 C.3       1 <0>        -0.1942
     23 C17         3.1127   -8.2840   -2.7812 C.3       1 <0>        -0.1747
     24 C18         2.2396   -8.0017   -1.5570 C.3       1 <0>        -0.1708
     25 O2          2.2788   -5.8659   -3.7075 O.3       1 <0>        -0.5230
     26 O3          5.0235   -4.7110   -1.5727 O.3       1 <0>        -0.5466
     27 O4         -0.4326   -2.7050   -1.4398 O.3       1 <0>        -0.7253
     28 P1         -1.1621   -3.4721   -0.2267 P.3       1 <0>         2.3903
     29 O5         -0.9183   -2.7410    1.0369 O.2       1 <0>        -1.0159
     30 C19        -0.4955   -5.1632   -0.0886 C.3       1 <0>        -0.7425
     31 C20        -1.0970   -5.8498    1.1393 C.3       1 <0>        -0.0985
     32 C21        -0.5376   -7.2691    1.2551 C.3       1 <0>        -0.0749
     33 C22        -1.1300   -7.9454    2.4646 C.ar      1 <0>        -0.0849
     34 C23        -0.5026   -7.8405    3.6918 C.ar      1 <0>        -0.1167
     35 C24        -1.0460   -8.4608    4.8012 C.ar      1 <0>        -0.1165
     36 C25        -2.2172   -9.1857    4.6834 C.ar      1 <0>        -0.1235
     37 C26        -2.8451   -9.2899    3.4563 C.ar      1 <0>        -0.1172
     38 C27        -2.3039   -8.6660    2.3478 C.ar      1 <0>        -0.1185
     39 O6         -2.7455   -3.5408   -0.5100 O.3       1 <0>        -0.7285
     40 C28        -3.5725   -2.3784   -0.5925 C.3       1 <0>         0.1058
     41 C29        -5.0332   -2.8025   -0.7581 C.3       1 <0>        -0.1603
     42 H5          1.3852    1.8190   -0.8695 H         1 <0>         0.0549
     43 H6         -0.0950    1.7648   -1.8565 H         1 <0>         0.0540
     44 H7         -0.2015    2.0894   -0.1097 H         1 <0>         0.0593
     45 H8          0.6352   -0.1959    0.3660 H         1 <0>         0.0766
     46 H9         -0.8450   -0.2501   -0.6211 H         1 <0>         0.0655
     47 H10         0.4851   -0.5698   -2.6588 H         1 <0>         0.0858
     48 H11         1.9940   -0.4090   -1.7285 H         1 <0>         0.0867
     49 H12         3.5088   -2.1622   -1.7885 H         1 <0>         0.4011
     50 H13         5.7084   -2.5165   -2.7182 H         1 <0>         0.0762
     51 H14         5.8456   -3.3152   -4.3030 H         1 <0>         0.0791
     52 H15         4.1067   -0.8723   -3.7397 H         1 <0>         0.0716
     53 H16         4.9400   -2.2600   -6.3275 H         1 <0>         0.0610
     54 H17         3.3202   -2.3207   -5.5923 H         1 <0>         0.0634
     55 H18         3.4186   -0.6147   -7.3891 H         1 <0>         0.0601
     56 H19         3.1317    0.1427   -5.8041 H         1 <0>         0.0602
     57 H20         5.8360   -0.0966   -7.1991 H         1 <0>         0.0604
     58 H21         4.8545    1.3838   -7.0847 H         1 <0>         0.0599
     59 H22         6.6226    1.3518   -5.3465 H         1 <0>         0.0608
     60 H23         5.0027    1.2910   -4.6112 H         1 <0>         0.0608
     61 H24         6.5242   -0.3542   -3.5497 H         1 <0>         0.0615
     62 H25         6.8111   -1.1116   -5.1347 H         1 <0>         0.0617
     63 H26         4.2698   -7.0685   -1.2799 H         1 <0>         0.1152
     64 H27         2.6698   -8.1209   -3.7637 H         1 <0>         0.0992
     65 H28         3.8195   -9.1112   -2.7154 H         1 <0>         0.0941
     66 H29         2.3719   -8.6431   -0.6857 H         1 <0>         0.0916
     67 H30         1.2222   -7.6529   -1.7340 H         1 <0>         0.0929
     68 H31         2.7634   -6.3448   -4.3936 H         1 <0>         0.3634
     69 H32         4.5388   -4.2321   -0.8866 H         1 <0>         0.3709
     70 H33        -0.7526   -5.7293   -0.9839 H         1 <0>         0.1026
     71 H34         0.5887   -5.1191    0.0145 H         1 <0>         0.1056
     72 H35        -0.8399   -5.2837    2.0345 H         1 <0>         0.0847
     73 H36        -2.1812   -5.8939    1.0362 H         1 <0>         0.0723
     74 H37        -0.7947   -7.8352    0.3599 H         1 <0>         0.0703
     75 H38         0.5467   -7.2250    1.3582 H         1 <0>         0.0719
     76 H39         0.4124   -7.2741    3.7839 H         1 <0>         0.1210
     77 H40        -0.5555   -8.3794    5.7599 H         1 <0>         0.1231
     78 H41        -2.6414   -9.6710    5.5500 H         1 <0>         0.1223
     79 H42        -3.7598   -9.8566    3.3642 H         1 <0>         0.1225
     80 H43        -2.7965   -8.7443    1.3899 H         1 <0>         0.1197
     81 H44        -3.4659   -1.7912    0.3196 H         1 <0>         0.0745
     82 H45        -3.2694   -1.7768   -1.4494 H         1 <0>         0.0654
     83 H46        -5.6641   -1.9158   -0.8210 H         1 <0>         0.0791
     84 H47        -5.1399   -3.3897   -1.6702 H         1 <0>         0.0663
     85 H48        -5.3363   -3.4040    0.0988 H         1 <0>         0.0684
@<TRIPOS>BOND
     1    1    2 1
     2    1   42 1
     3    1   43 1
     4    1   44 1
     5    2    3 1
     6    2   45 1
     7    2   46 1
     8    3    4 1
     9    3   47 1
    10    3   48 1
    11    4    5 1
    12    4    6 1
    13    4   27 1
    14    6    7 2
    15    6    8 am
    16    8    9 1
    17    8   49 1
    18    9   10 1
    19    9   11 1
    20    9   18 1
    21   11   12 1
    22   11   50 1
    23   11   51 1
    24   12   17 1
    25   12   13 1
    26   12   52 1
    27   13   14 1
    28   13   53 1
    29   13   54 1
    30   14   15 1
    31   14   55 1
    32   14   56 1
    33   15   16 1
    34   15   57 1
    35   15   58 1
    36   16   17 1
    37   16   59 1
    38   16   60 1
    39   17   61 1
    40   17   62 1
    41   18   19 1
    42   18   20 1
    43   18   26 1
    44   20   21 1
    45   20   22 1
    46   20   25 1
    47   22   24 1
    48   22   23 1
    49   22   63 1
    50   23   24 1
    51   23   64 1
    52   23   65 1
    53   24   66 1
    54   24   67 1
    55   25   68 1
    56   26   69 1
    57   27   28 1
    58   28   29 2
    59   28   30 1
    60   28   39 1
    61   30   31 1
    62   30   70 1
    63   30   71 1
    64   31   32 1
    65   31   72 1
    66   31   73 1
    67   32   33 1
    68   32   74 1
    69   32   75 1
    70   33   38 ar
    71   33   34 ar
    72   34   35 ar
    73   34   76 1
    74   35   36 ar
    75   35   77 1
    76   36   37 ar
    77   36   78 1
    78   37   38 ar
    79   37   79 1
    80   38   80 1
    81   39   40 1
    82   40   41 1
    83   40   81 1
    84   40   82 1
    85   41   83 1
    86   41   84 1
    87   41   85 1
@<TRIPOS>MOLECULE
CHEMBL144812__1
   85    87     0     0     0
SMALL
USER_CHARGES

@<TRIPOS>ATOM
      1 C1         -0.0187    1.5258    0.0104 C.3       1 <0>        -0.1521
      2 C2          0.0021   -0.0041    0.0020 C.3       1 <0>        -0.1286
      3 C3          0.7182   -0.4975   -1.2568 C.3       1 <0>        -0.1271
      4 C4          0.7390   -2.0273   -1.2652 C.3       1 <0>         0.1321
      5 H1          1.1870   -2.3897   -0.3400 H         1 <0>         0.0848
      6 C5          1.5495   -2.5123   -2.4395 C.2       1 <0>         0.4800
      7 O1          1.0128   -3.1353   -3.3309 O.2       1 <0>        -0.4678
      8 N1          2.8708   -2.2535   -2.4991 N.am      1 <0>        -0.7279
      9 C6          3.6588   -2.7250   -3.6406 C.3       1 <0>         0.1166
     10 H2          3.0511   -2.6811   -4.5445 H         1 <0>         0.1095
     11 C7          4.8918   -1.8354   -3.8114 C.3       1 <0>        -0.1185
     12 C8          4.4507   -0.4179   -4.1818 C.3       1 <0>        -0.0857
     13 C9          3.7722   -0.4369   -5.5530 C.3       1 <0>        -0.1167
     14 C10         3.3312    0.9806   -5.9233 C.3       1 <0>        -0.1191
     15 C11         4.5540    1.8989   -5.9720 C.3       1 <0>        -0.1207
     16 C12         5.2325    1.9178   -4.6008 C.3       1 <0>        -0.1196
     17 C13         5.6736    0.5004   -4.2305 C.3       1 <0>        -0.1140
     18 C14         4.1016   -4.1685   -3.3934 C.3       1 <0>         0.0662
     19 H3          4.6879   -4.5192   -4.2427 H         1 <0>         0.1089
     20 C15         2.8686   -5.0580   -3.2226 C.3       1 <0>         0.1124
     21 H4          2.2823   -4.7073   -2.3733 H         1 <0>         0.0952
     22 C16         3.3114   -6.5015   -2.9753 C.3       1 <0>        -0.1928
     23 C17         3.0272   -7.5260   -4.0756 C.3       1 <0>        -0.1776
     24 C18         2.2169   -7.5523   -2.7780 C.3       1 <0>        -0.1705
     25 O2          2.0719   -5.0005   -4.4075 O.3       1 <0>        -0.5228
     26 O3          4.8983   -4.2260   -2.2084 O.3       1 <0>        -0.5458
     27 O4         -0.5977   -2.5212   -1.3725 O.3       1 <0>        -0.7182
     28 P1         -1.2757   -3.4655   -0.2586 P.3       1 <0>         2.3754
     29 O5         -1.1956   -2.8047    1.0633 O.2       1 <0>        -1.0094
     30 C19        -3.0235   -3.7542   -0.6888 C.3       1 <0>        -0.7227
     31 C20        -3.7003   -4.5467    0.4314 C.3       1 <0>        -0.1013
     32 C21        -5.1672   -4.7890    0.0703 C.3       1 <0>        -0.0777
     33 C22        -5.8338   -5.5695    1.1736 C.ar      1 <0>        -0.0859
     34 C23        -5.8321   -6.9515    1.1410 C.ar      1 <0>        -0.1185
     35 C24        -6.4436   -7.6675    2.1530 C.ar      1 <0>        -0.1174
     36 C25        -7.0563   -7.0016    3.1980 C.ar      1 <0>        -0.1232
     37 C26        -7.0571   -5.6196    3.2312 C.ar      1 <0>        -0.1165
     38 C27        -6.4419   -4.9037    2.2213 C.ar      1 <0>        -0.1163
     39 O6         -0.4971   -4.8736   -0.2026 O.3       1 <0>        -0.7411
     40 C28         0.8658   -4.9935    0.2100 C.3       1 <0>         0.1088
     41 C29         1.2905   -6.4620    0.1465 C.3       1 <0>        -0.1682
     42 H5          1.0039    1.9031    0.0027 H         1 <0>         0.0541
     43 H6         -0.5459    1.8868   -0.8726 H         1 <0>         0.0530
     44 H7         -0.5289    1.8773    0.9072 H         1 <0>         0.0592
     45 H8          0.5293   -0.3651    0.8851 H         1 <0>         0.0746
     46 H9         -1.0205   -0.3814    0.0098 H         1 <0>         0.0718
     47 H10         0.1910   -0.1364   -2.1398 H         1 <0>         0.0858
     48 H11         1.7408   -0.1202   -1.2645 H         1 <0>         0.0865
     49 H12         3.3001   -1.7552   -1.7861 H         1 <0>         0.4006
     50 H13         5.4529   -1.8089   -2.8773 H         1 <0>         0.0765
     51 H14         5.5234   -2.2380   -4.6033 H         1 <0>         0.0793
     52 H15         3.7487   -0.0488   -3.4341 H         1 <0>         0.0715
     53 H16         4.4743   -0.8060   -6.3007 H         1 <0>         0.0611
     54 H17         2.9011   -1.0911   -5.5183 H         1 <0>         0.0636
     55 H18         2.8478    0.9671   -6.9002 H         1 <0>         0.0599
     56 H19         2.6291    1.3497   -5.1757 H         1 <0>         0.0600
     57 H20         5.2560    1.5298   -6.7197 H         1 <0>         0.0605
     58 H21         4.2397    2.9087   -6.2359 H         1 <0>         0.0596
     59 H22         6.1036    2.5720   -4.6355 H         1 <0>         0.0607
     60 H23         4.5305    2.2869   -3.8531 H         1 <0>         0.0607
     61 H24         6.1569    0.5138   -3.2536 H         1 <0>         0.0616
     62 H25         6.3756    0.1313   -4.9781 H         1 <0>         0.0617
     63 H26         4.2314   -6.6195   -2.4028 H         1 <0>         0.1156
     64 H27         2.5247   -7.1716   -4.9756 H         1 <0>         0.0983
     65 H28         3.7603   -8.3182   -4.2273 H         1 <0>         0.0932
     66 H29         2.4170   -8.3617   -2.0760 H         1 <0>         0.0936
     67 H30         1.1814   -7.2152   -2.8244 H         1 <0>         0.0983
     68 H31         2.5307   -5.2988   -5.2048 H         1 <0>         0.3629
     69 H32         4.4395   -3.9277   -1.4112 H         1 <0>         0.3699
     70 H33        -3.5298   -2.7970   -0.8138 H         1 <0>         0.1167
     71 H34        -3.0801   -4.3194   -1.6191 H         1 <0>         0.1013
     72 H35        -3.1940   -5.5038    0.5564 H         1 <0>         0.0734
     73 H36        -3.6436   -3.9815    1.3617 H         1 <0>         0.0873
     74 H37        -5.6734   -3.8318   -0.0547 H         1 <0>         0.0738
     75 H38        -5.2238   -5.3541   -0.8600 H         1 <0>         0.0715
     76 H39        -5.3535   -7.4718    0.3245 H         1 <0>         0.1201
     77 H40        -6.4429   -8.7472    2.1271 H         1 <0>         0.1227
     78 H41        -7.5346   -7.5610    3.9884 H         1 <0>         0.1226
     79 H42        -7.5361   -5.0993    4.0475 H         1 <0>         0.1236
     80 H43        -6.4394   -3.8240    2.2491 H         1 <0>         0.1222
     81 H44         1.4992   -4.4032   -0.4522 H         1 <0>         0.0425
     82 H45         0.9694   -4.6292    1.2320 H         1 <0>         0.0774
     83 H46         2.3301   -6.5535    0.4612 H         1 <0>         0.0778
     84 H47         0.6571   -7.0524    0.8086 H         1 <0>         0.0706
     85 H48         1.1869   -6.8264   -0.8756 H         1 <0>         0.0764
@<TRIPOS>BOND
     1    1    2 1
     2    1   42 1
     3    1   43 1
     4    1   44 1
     5    2    3 1
     6    2   45 1
     7    2   46 1
     8    3    4 1
     9    3   47 1
    10    3   48 1
    11    4    5 1
    12    4    6 1
    13    4   27 1
    14    6    7 2
    15    6    8 am
    16    8    9 1
    17    8   49 1
    18    9   10 1
    19    9   11 1
    20    9   18 1
    21   11   12 1
    22   11   50 1
    23   11   51 1
    24   12   17 1
    25   12   13 1
    26   12   52 1
    27   13   14 1
    28   13   53 1
    29   13   54 1
    30   14   15 1
    31   14   55 1
    32   14   56 1
    33   15   16 1
    34   15   57 1
    35   15   58 1
    36   16   17 1
    37   16   59 1
    38   16   60 1
    39   17   61 1
    40   17   62 1
    41   18   19 1
    42   18   20 1
    43   18   26 1
    44   20   21 1
    45   20   22 1
    46   20   25 1
    47   22   24 1
    48   22   23 1
    49   22   63 1
    50   23   24 1
    51   23   64 1
    52   23   65 1
    53   24   66 1
    54   24   67 1
    55   25   68 1
    56   26   69 1
    57   27   28 1
    58   28   29 2
    59   28   30 1
    60   28   39 1
    61   30   31 1
    62   30   70 1
    63   30   71 1
    64   31   32 1
    65   31   72 1
    66   31   73 1
    67   32   33 1
    68   32   74 1
    69   32   75 1
    70   33   38 ar
    71   33   34 ar
    72   34   35 ar
    73   34   76 1
    74   35   36 ar
    75   35   77 1
    76   36   37 ar
    77   36   78 1
    78   37   38 ar
    79   37   79 1
    80   38   80 1
    81   39   40 1
    82   40   41 1
    83   40   81 1
    84   40   82 1
    85   41   83 1
    86   41   84 1
    87   41   85 1
@<TRIPOS>MOLECULE
CHEMBL540886
   83    84     0     0     0
SMALL
USER_CHARGES

@<TRIPOS>ATOM
      1 C1          1.2066    0.5331  -15.0989 C.3       1 <0>        -0.1549
      2 C2          0.9723   -0.9379  -14.7497 C.3       1 <0>        -0.1221
      3 C3          1.7325   -1.2852  -13.4681 C.3       1 <0>        -0.1335
      4 C4          1.4981   -2.7563  -13.1189 C.3       1 <0>         0.1155
      5 N1          2.2260   -3.0888  -11.8918 N.am      1 <0>        -0.7244
      6 C5          2.1662   -4.3384  -11.3904 C.2       1 <0>         0.5144
      7 O1          1.5097   -5.1876  -11.9551 O.2       1 <0>        -0.5464
      8 C6          2.9150   -4.6805  -10.1281 C.3       1 <0>        -0.1050
      9 H1          2.5579   -4.0520   -9.3122 H         1 <0>         0.1112
     10 C7          4.4107   -4.4389  -10.3410 C.3       1 <0>        -0.1535
     11 C8          2.6806   -6.1515   -9.7788 C.3       1 <0>        -0.1545
     12 C9          3.3372   -6.4671   -8.4334 C.3       1 <0>         0.0875
     13 H2          4.3911   -6.1917   -8.4699 H         1 <0>         0.1495
     14 C10         3.2110   -7.9640   -8.1430 C.3       1 <0>        -0.0125
     15 H3          3.7819   -8.5268   -8.8815 H         1 <0>         0.1559
     16 C11         3.7554   -8.2598   -6.7440 C.3       1 <0>        -0.1421
     17 C12         3.7718   -9.7721   -6.5124 C.3       1 <0>        -0.0886
     18 H4          2.7739  -10.1765   -6.6819 H         1 <0>         0.0652
     19 C13         4.7585  -10.4258   -7.4819 C.3       1 <0>        -0.0812
     20 C14         4.6713  -11.9247   -7.3526 C.ar      1 <0>        -0.0917
     21 C15         5.4796  -12.5871   -6.4474 C.ar      1 <0>        -0.1068
     22 C16         5.4035  -13.9620   -6.3251 C.ar      1 <0>        -0.1681
     23 C17         4.5152  -14.6793   -7.1103 C.ar      1 <0>         0.1074
     24 C18         3.7013  -14.0125   -8.0210 C.ar      1 <0>         0.1068
     25 C19         3.7793  -12.6338   -8.1353 C.ar      1 <0>        -0.1781
     26 O2          2.8280  -14.7121   -8.7939 O.3       1 <0>        -0.2937
     27 C20         2.0243  -13.9617   -9.7065 C.3       1 <0>         0.1077
     28 C21         1.1249  -14.8983  -10.4712 C.ar      1 <0>        -0.1062
     29 C22         1.5569  -15.4539  -11.6609 C.ar      1 <0>        -0.0938
     30 C23         0.7319  -16.3131  -12.3624 C.ar      1 <0>        -0.1205
     31 C24        -0.5250  -16.6170  -11.8739 C.ar      1 <0>        -0.1037
     32 C25        -0.9567  -16.0621  -10.6837 C.ar      1 <0>        -0.1220
     33 C26        -0.1301  -15.2063   -9.9801 C.ar      1 <0>        -0.0958
     34 O3          4.4394  -16.0319   -6.9914 O.3       1 <0>        -0.3035
     35 C27         5.3052  -16.6488   -6.0366 C.3       1 <0>         0.0241
     36 C28         4.2023  -10.0629   -5.0733 C.3       1 <0>        -0.0931
     37 C29         5.5526   -9.3972   -4.8005 C.3       1 <0>        -0.1590
     38 C30         3.1552   -9.5079   -4.1057 C.3       1 <0>        -0.1560
     39 N2          1.7977   -8.3588   -8.2121 N.4       1 <0>        -0.6415
     40 O4          2.6864   -5.7250   -7.4001 O.3       1 <0>        -0.5316
     41 H5          0.8496    1.1616  -14.2830 H         1 <0>         0.0555
     42 H6          2.2722    0.7053  -15.2506 H         1 <0>         0.0557
     43 H7          0.6650    0.7806  -16.0119 H         1 <0>         0.0594
     44 H8         -0.0933   -1.1100  -14.5980 H         1 <0>         0.0657
     45 H9          1.3293   -1.5664  -15.5655 H         1 <0>         0.0660
     46 H10         2.7981   -1.1131  -13.6198 H         1 <0>         0.0707
     47 H11         1.3754   -0.6568  -12.6522 H         1 <0>         0.0705
     48 H12         0.4325   -2.9284  -12.9672 H         1 <0>         0.0701
     49 H13         1.8552   -3.3847  -13.9347 H         1 <0>         0.0707
     50 H14         2.7511   -2.4096  -11.4401 H         1 <0>         0.4036
     51 H15         4.7677   -5.0673  -11.1569 H         1 <0>         0.0661
     52 H16         4.5777   -3.3909  -10.5898 H         1 <0>         0.0700
     53 H17         4.9523   -4.6863   -9.4280 H         1 <0>         0.0726
     54 H18         1.6096   -6.3435   -9.7144 H         1 <0>         0.0743
     55 H19         3.1170   -6.7827  -10.5530 H         1 <0>         0.0981
     56 H20         4.7689   -7.8681   -6.6582 H         1 <0>         0.1206
     57 H21         3.1179   -7.7849   -5.9982 H         1 <0>         0.1025
     58 H22         4.5119  -10.1343   -8.5028 H         1 <0>         0.0672
     59 H23         5.7710  -10.0990   -7.2452 H         1 <0>         0.0903
     60 H24         6.1724  -12.0292   -5.8348 H         1 <0>         0.1285
     61 H25         6.0365  -14.4770   -5.6177 H         1 <0>         0.1386
     62 H26         3.1461  -12.1136   -8.8387 H         1 <0>         0.1263
     63 H27         1.4168  -13.2463   -9.1522 H         1 <0>         0.0634
     64 H28         2.6693  -13.4271  -10.4039 H         1 <0>         0.0682
     65 H29         2.5390  -15.2165  -12.0426 H         1 <0>         0.1236
     66 H30         1.0692  -16.7467  -13.2923 H         1 <0>         0.1282
     67 H31        -1.1698  -17.2878  -12.4223 H         1 <0>         0.1277
     68 H32        -1.9389  -16.2993  -10.3022 H         1 <0>         0.1273
     69 H33        -0.4659  -14.7757   -9.0483 H         1 <0>         0.1215
     70 H34         5.1438  -17.7268   -6.0429 H         1 <0>         0.1054
     71 H35         6.3423  -16.4352   -6.2952 H         1 <0>         0.0577
     72 H36         5.0900  -16.2550   -5.0432 H         1 <0>         0.0570
     73 H37         4.2931  -11.1399   -4.9318 H         1 <0>         0.0877
     74 H38         6.2779   -9.7288   -5.5434 H         1 <0>         0.0611
     75 H39         5.4421   -8.3143   -4.8586 H         1 <0>         0.0585
     76 H40         5.8996   -9.6740   -3.8050 H         1 <0>         0.0623
     77 H41         2.2093  -10.0283   -4.2562 H         1 <0>         0.0537
     78 H42         3.4929   -9.6573   -3.0801 H         1 <0>         0.0642
     79 H43         3.0174   -8.4427   -4.2913 H         1 <0>         0.0558
     80 H44         1.2588   -7.7927   -7.5740 H         1 <0>         0.4283
     81 H45         1.4564   -8.2239   -9.1519 H         1 <0>         0.4378
     82 H46         1.7435   -5.9197   -7.3101 H         1 <0>         0.3695
     83 H47         1.7073   -9.3310   -7.9577 H         1 <0>         0.4369
@<TRIPOS>BOND
     1    1    2 1
     2    1   41 1
     3    1   42 1
     4    1   43 1
     5    2    3 1
     6    2   44 1
     7    2   45 1
     8    3    4 1
     9    3   46 1
    10    3   47 1
    11    4    5 1
    12    4   48 1
    13    4   49 1
    14    5    6 am
    15    5   50 1
    16    6    7 2
    17    6    8 1
    18    8    9 1
    19    8   10 1
    20    8   11 1
    21   10   51 1
    22   10   52 1
    23   10   53 1
    24   11   12 1
    25   11   54 1
    26   11   55 1
    27   12   13 1
    28   12   14 1
    29   12   40 1
    30   14   15 1
    31   14   16 1
    32   14   39 1
    33   16   17 1
    34   16   56 1
    35   16   57 1
    36   17   18 1
    37   17   19 1
    38   17   36 1
    39   19   20 1
    40   19   58 1
    41   19   59 1
    42   20   25 ar
    43   20   21 ar
    44   21   22 ar
    45   21   60 1
    46   22   23 ar
    47   22   61 1
    48   23   24 ar
    49   23   34 1
    50   24   25 ar
    51   24   26 1
    52   25   62 1
    53   26   27 1
    54   27   28 1
    55   27   63 1
    56   27   64 1
    57   28   33 ar
    58   28   29 ar
    59   29   30 ar
    60   29   65 1
    61   30   31 ar
    62   30   66 1
    63   31   32 ar
    64   31   67 1
    65   32   33 ar
    66   32   68 1
    67   33   69 1
    68   34   35 1
    69   35   70 1
    70   35   71 1
    71   35   72 1
    72   36   37 1
    73   36   38 1
    74   36   73 1
    75   37   74 1
    76   37   75 1
    77   37   76 1
    78   38   77 1
    79   38   78 1
    80   38   79 1
    81   39   80 1
    82   39   81 1
    83   39   83 1
    84   40   82 1
@<TRIPOS>MOLECULE
CHEMBL31252
   64    68     0     0     0
SMALL
USER_CHARGES

@<TRIPOS>ATOM
      1 C1         -0.0167    1.3795    0.0096 C.ar      1 <0>        -0.0793
      2 C2          1.1683    2.0938    0.0021 C.ar      1 <0>        -0.1290
      3 C3          2.3774    1.4300   -0.0129 C.ar      1 <0>        -0.0531
      4 C4          2.4037    0.0340   -0.0206 C.ar      1 <0>        -0.1308
      5 C5          1.2041   -0.6806   -0.0130 C.ar      1 <0>        -0.0628
      6 C6          0.0021   -0.0041    0.0020 C.ar      1 <0>        -0.1338
      7 C7          3.6948   -0.6838   -0.0372 C.2       1 <0>         0.5105
      8 O1          4.7367   -0.0594   -0.0442 O.2       1 <0>        -0.4989
      9 O2          3.7166   -2.0307   -0.0446 O.3       1 <0>        -0.3440
     10 C8          5.0001   -2.6586   -0.0607 C.3       1 <0>         0.1032
     11 C9          4.8269   -4.1556   -0.0670 C.ar      1 <0>        -0.0835
     12 C10         4.7537   -4.8479    1.1273 C.ar      1 <0>        -0.0862
     13 C11         4.5948   -6.2211    1.1216 C.ar      1 <0>        -0.0999
     14 C12         4.5087   -6.9019   -0.0784 C.ar      1 <0>        -0.0751
     15 C13         4.5810   -6.2095   -1.2727 C.ar      1 <0>        -0.1218
     16 C14         4.7356   -4.8358   -1.2669 C.ar      1 <0>        -0.0892
     17 C15         4.3365   -8.3990   -0.0847 C.3       1 <0>        -0.0550
     18 H1          4.3009   -8.7661    0.9410 H         1 <0>         0.1062
     19 C16         3.0340   -8.7617   -0.8038 C.3       1 <0>        -0.1392
     20 C17         2.9048  -10.2847   -0.8765 C.3       1 <0>        -0.0097
     21 N1          4.0446  -10.8413   -1.6151 N.4       1 <0>        -0.4996
     22 C18         5.2914  -10.5591   -0.8937 C.3       1 <0>        -0.0389
     23 C19         5.5134   -9.0468   -0.8199 C.3       1 <0>         0.0781
     24 H2          5.5803   -8.6403   -1.8291 H         1 <0>         0.0864
     25 O3          6.7254   -8.7747   -0.1135 O.3       1 <0>        -0.3430
     26 C20         7.8819   -8.7026   -0.9498 C.3       1 <0>         0.1005
     27 C21         9.0956   -8.4130   -0.1048 C.ar      1 <0>        -0.0989
     28 C22         9.4641   -7.0908    0.1371 C.ar      1 <0>        -0.1006
     29 C23        10.5547   -6.7948    0.8955 C.ar      1 <0>        -0.0995
     30 C24        11.3228   -7.8355    1.4449 C.ar      1 <0>        -0.0433
     31 C25        12.4551   -7.5691    2.2335 C.ar      1 <0>        -0.1082
     32 C26        13.1747   -8.6026    2.7494 C.ar      1 <0>        -0.1070
     33 C27        12.8060   -9.9249    2.5079 C.ar      1 <0>        -0.1105
     34 C28        11.7157  -10.2208    1.7491 C.ar      1 <0>        -0.1077
     35 C29        10.9478   -9.1800    1.1993 C.ar      1 <0>        -0.0570
     36 C30         9.8122   -9.4464    0.4154 C.ar      1 <0>        -0.0770
     37 H3         -0.9605    1.9041    0.0260 H         1 <0>         0.1328
     38 H4          1.1465    3.1736    0.0078 H         1 <0>         0.1365
     39 H5          3.3016    1.9887   -0.0191 H         1 <0>         0.1391
     40 H6          1.2174   -1.7605   -0.0192 H         1 <0>         0.1359
     41 H7         -0.9265   -0.5555    0.0079 H         1 <0>         0.1330
     42 H8          5.5435   -2.3520   -0.9545 H         1 <0>         0.0807
     43 H9          5.5611   -2.3615    0.8254 H         1 <0>         0.0815
     44 H10         4.8209   -4.3160    2.0648 H         1 <0>         0.1298
     45 H11         4.5383   -6.7621    2.0546 H         1 <0>         0.1274
     46 H12         4.5141   -6.7415   -2.2102 H         1 <0>         0.1186
     47 H13         4.7884   -4.2944   -2.1999 H         1 <0>         0.1281
     48 H14         2.1877   -8.3505   -0.2535 H         1 <0>         0.1233
     49 H15         3.0481   -8.3490   -1.8126 H         1 <0>         0.0938
     50 H16         2.8905  -10.6962    0.1327 H         1 <0>         0.1348
     51 H17         1.9784  -10.5463   -1.3878 H         1 <0>         0.1397
     52 H18         3.9292  -11.8394   -1.7075 H         1 <0>         0.4358
     53 H19         5.2262  -10.9648    0.1159 H         1 <0>         0.1417
     54 H20         6.1269  -11.0234   -1.4176 H         1 <0>         0.1348
     55 H21         8.0169   -9.6531   -1.4659 H         1 <0>         0.0609
     56 H22         7.7511   -7.9065   -1.6828 H         1 <0>         0.0684
     57 H23         8.8755   -6.2891   -0.2840 H         1 <0>         0.1226
     58 H24        10.8286   -5.7654    1.0738 H         1 <0>         0.1315
     59 H25        12.7529   -6.5495    2.4288 H         1 <0>         0.1310
     60 H26        14.0447   -8.3952    3.3548 H         1 <0>         0.1282
     61 H27        13.3946  -10.7266    2.9289 H         1 <0>         0.1275
     62 H28        11.4422  -11.2501    1.5700 H         1 <0>         0.1276
     63 H29         9.5121  -10.4660    0.2235 H         1 <0>         0.1250
     64 H30         4.0861  -10.4233   -2.5325 H         1 <0>         0.4277
@<TRIPOS>BOND
     1    1    6 ar
     2    1    2 ar
     3    1   37 1
     4    2    3 ar
     5    2   38 1
     6    3    4 ar
     7    3   39 1
     8    4    5 ar
     9    4    7 1
    10    5    6 ar
    11    5   40 1
    12    6   41 1
    13    7    8 2
    14    7    9 1
    15    9   10 1
    16   10   11 1
    17   10   42 1
    18   10   43 1
    19   11   16 ar
    20   11   12 ar
    21   12   13 ar
    22   12   44 1
    23   13   14 ar
    24   13   45 1
    25   14   15 ar
    26   14   17 1
    27   15   16 ar
    28   15   46 1
    29   16   47 1
    30   17   18 1
    31   17   23 1
    32   17   19 1
    33   19   20 1
    34   19   48 1
    35   19   49 1
    36   20   21 1
    37   20   50 1
    38   20   51 1
    39   21   22 1
    40   21   52 1
    41   21   64 1
    42   22   23 1
    43   22   53 1
    44   22   54 1
    45   23   24 1
    46   23   25 1
    47   25   26 1
    48   26   27 1
    49   26   55 1
    50   26   56 1
    51   27   36 ar
    52   27   28 ar
    53   28   29 ar
    54   28   57 1
    55   29   30 ar
    56   29   58 1
    57   30   35 ar
    58   30   31 ar
    59   31   32 ar
    60   31   59 1
    61   32   33 ar
    62   32   60 1
    63   33   34 ar
    64   33   61 1
    65   34   35 ar
    66   34   62 1
    67   35   36 ar
    68   36   63 1
@<TRIPOS>MOLECULE
CHEMBL32002
   79    83     0     0     0
SMALL
USER_CHARGES

@<TRIPOS>ATOM
      1 C1         -0.0173    1.4248    0.0099 C.3       1 <0>         0.0264
      2 O1          0.0021   -0.0041    0.0020 O.3       1 <0>        -0.3189
      3 C2          0.6258   -0.6184    1.0415 C.ar      1 <0>         0.1310
      4 C3          1.2023    0.1385    2.0514 C.ar      1 <0>        -0.2068
      5 C4          1.8353   -0.4882    3.1070 C.ar      1 <0>        -0.0783
      6 C5          1.8947   -1.8689    3.1579 C.ar      1 <0>        -0.1573
      7 C6          1.3214   -2.6252    2.1527 C.ar      1 <0>        -0.0597
      8 C7          0.6822   -2.0032    1.0975 C.ar      1 <0>        -0.1255
      9 C8          0.0521   -2.8284    0.0053 C.3       1 <0>         0.1183
     10 O2          0.2417   -4.2164    0.2874 O.3       1 <0>        -0.3828
     11 C9         -0.3213   -5.0909   -0.6926 C.3       1 <0>         0.0684
     12 C10        -0.0597   -6.5437   -0.2902 C.3       1 <0>        -0.1201
     13 C11        -0.6625   -7.4800   -1.3394 C.3       1 <0>         0.0632
     14 O3         -0.4181   -8.8368   -0.9636 O.3       1 <0>        -0.3094
     15 C12        -0.8919   -9.8021   -1.7947 C.ar      1 <0>         0.1454
     16 C13        -1.5729   -9.4505   -2.9511 C.ar      1 <0>        -0.2036
     17 C14        -2.0531  -10.4336   -3.7944 C.ar      1 <0>        -0.0554
     18 C15        -1.8559  -11.7671   -3.4867 C.ar      1 <0>        -0.1274
     19 C16        -1.1778  -12.1201   -2.3345 C.ar      1 <0>        -0.0781
     20 C17        -0.6903  -11.1407   -1.4910 C.ar      1 <0>        -0.1484
     21 C18        -2.3812  -12.8375   -4.4082 C.3       1 <0>        -0.0472
     22 H1         -2.8836  -12.3734   -5.2569 H         1 <0>         0.1030
     23 C19        -1.2177  -13.6977   -4.9098 C.3       1 <0>        -0.1395
     24 C20        -1.7661  -14.8300   -5.7807 C.3       1 <0>        -0.0098
     25 N1         -2.6844  -15.6590   -4.9907 N.4       1 <0>        -0.4994
     26 C21        -3.8389  -14.8579   -4.5667 C.3       1 <0>        -0.0390
     27 C22        -3.3718  -13.7254   -3.6496 C.3       1 <0>         0.0777
     28 H2         -2.8834  -14.1477   -2.7714 H         1 <0>         0.0852
     29 O4         -4.4970  -12.9446   -3.2418 O.3       1 <0>        -0.3415
     30 C23        -5.1131  -13.3991   -2.0352 C.3       1 <0>         0.1026
     31 C24        -6.2816  -12.5079   -1.7012 C.ar      1 <0>        -0.0637
     32 C25        -6.0939  -11.3852   -0.9156 C.ar      1 <0>        -0.1445
     33 C26        -7.1635  -10.5679   -0.6061 C.ar      1 <0>        -0.0774
     34 C27        -8.4304  -10.8653   -1.0802 C.ar      1 <0>        -0.1360
     35 C28        -8.6187  -11.9884   -1.8705 C.ar      1 <0>         0.2157
     36 C29        -7.5395  -12.8078   -2.1837 C.ar      1 <0>        -0.1701
     37 N2         -9.8853  -12.3091   -2.3710 N.pl3     1 <0>        -0.7517
     38 C30       -11.0624  -11.6285   -1.8141 C.3       1 <0>         0.1203
     39 C31       -10.7312  -10.1345   -1.7034 C.3       1 <0>        -0.1396
     40 C32        -9.5755   -9.9563   -0.7191 C.3       1 <0>        -0.0782
     41 H3          1.0053    1.8021    0.0021 H         1 <0>         0.0574
     42 H4         -0.5445    1.7859   -0.8732 H         1 <0>         0.1019
     43 H5         -0.5275    1.7763    0.9067 H         1 <0>         0.0574
     44 H6          1.1565    1.2168    2.0119 H         1 <0>         0.1307
     45 H7          2.2845    0.1005    3.8932 H         1 <0>         0.1267
     46 H8          2.3900   -2.3570    3.9842 H         1 <0>         0.1261
     47 H9          1.3695   -3.7034    2.1946 H         1 <0>         0.1384
     48 H10        -1.0147   -2.6104   -0.0453 H         1 <0>         0.0641
     49 H11         0.5184   -2.5846   -0.9492 H         1 <0>         0.0641
     50 H12        -1.3959   -4.9198   -0.7576 H         1 <0>         0.0539
     51 H13         0.1373   -4.8940   -1.6616 H         1 <0>         0.0539
     52 H14         1.0149   -6.7148   -0.2251 H         1 <0>         0.0854
     53 H15        -0.5183   -6.7406    0.6788 H         1 <0>         0.0855
     54 H16        -1.7370   -7.3089   -1.4045 H         1 <0>         0.0675
     55 H17        -0.2039   -7.2831   -2.3084 H         1 <0>         0.0672
     56 H18        -1.7278   -8.4091   -3.1915 H         1 <0>         0.1316
     57 H19        -2.5833  -10.1604   -4.6948 H         1 <0>         0.1254
     58 H20        -1.0254  -13.1624   -2.0961 H         1 <0>         0.1212
     59 H21        -0.1569  -11.4169   -0.5935 H         1 <0>         0.1339
     60 H22        -0.5375  -13.0823   -5.4987 H         1 <0>         0.1222
     61 H23        -0.6834  -14.1194   -4.0584 H         1 <0>         0.0930
     62 H24        -2.2999  -14.4072   -6.6318 H         1 <0>         0.1339
     63 H25        -0.9403  -15.4443   -6.1396 H         1 <0>         0.1386
     64 H26        -3.0025  -16.4350   -5.5517 H         1 <0>         0.4348
     65 H27        -4.3286  -14.4345   -5.4437 H         1 <0>         0.1405
     66 H28        -4.5434  -15.4927   -4.0294 H         1 <0>         0.1336
     67 H29        -5.4634  -14.4225   -2.1692 H         1 <0>         0.0582
     68 H30        -4.3876  -13.3669   -1.2223 H         1 <0>         0.0676
     69 H31        -5.1086  -11.1471   -0.5428 H         1 <0>         0.1184
     70 H32        -7.0113   -9.6931    0.0086 H         1 <0>         0.1244
     71 H33        -7.6866  -13.6816   -2.8011 H         1 <0>         0.1169
     72 H34        -9.9847  -12.9698   -3.0743 H         1 <0>         0.4011
     73 H35       -11.9173  -11.7692   -2.4755 H         1 <0>         0.0823
     74 H36       -11.2885  -12.0307   -0.8266 H         1 <0>         0.0616
     75 H37       -10.4402   -9.7515   -2.6816 H         1 <0>         0.0699
     76 H38       -11.6053   -9.5925   -1.3423 H         1 <0>         0.0812
     77 H39        -9.9201  -10.1942    0.2872 H         1 <0>         0.0759
     78 H40        -9.2355   -8.9210   -0.7470 H         1 <0>         0.0783
     79 H41        -2.2028  -16.0103   -4.1766 H         1 <0>         0.4276
@<TRIPOS>BOND
     1    1    2 1
     2    1   41 1
     3    1   42 1
     4    1   43 1
     5    2    3 1
     6    3    8 ar
     7    3    4 ar
     8    4    5 ar
     9    4   44 1
    10    5    6 ar
    11    5   45 1
    12    6    7 ar
    13    6   46 1
    14    7    8 ar
    15    7   47 1
    16    8    9 1
    17    9   10 1
    18    9   48 1
    19    9   49 1
    20   10   11 1
    21   11   12 1
    22   11   50 1
    23   11   51 1
    24   12   13 1
    25   12   52 1
    26   12   53 1
    27   13   14 1
    28   13   54 1
    29   13   55 1
    30   14   15 1
    31   15   20 ar
    32   15   16 ar
    33   16   17 ar
    34   16   56 1
    35   17   18 ar
    36   17   57 1
    37   18   19 ar
    38   18   21 1
    39   19   20 ar
    40   19   58 1
    41   20   59 1
    42   21   22 1
    43   21   27 1
    44   21   23 1
    45   23   24 1
    46   23   60 1
    47   23   61 1
    48   24   25 1
    49   24   62 1
    50   24   63 1
    51   25   26 1
    52   25   64 1
    53   25   79 1
    54   26   27 1
    55   26   65 1
    56   26   66 1
    57   27   28 1
    58   27   29 1
    59   29   30 1
    60   30   31 1
    61   30   67 1
    62   30   68 1
    63   31   36 ar
    64   31   32 ar
    65   32   33 ar
    66   32   69 1
    67   33   34 ar
    68   33   70 1
    69   34   40 1
    70   34   35 ar
    71   35   36 ar
    72   35   37 1
    73   36   71 1
    74   37   38 1
    75   37   72 1
    76   38   39 1
    77   38   73 1
    78   38   74 1
    79   39   40 1
    80   39   75 1
    81   39   76 1
    82   40   77 1
    83   40   78 1
@<TRIPOS>MOLECULE
CHEMBL536083
   82    83     0     0     0
SMALL
USER_CHARGES

@<TRIPOS>ATOM
      1 C1          7.7433    0.0213  -12.0702 C.3       1 <0>        -0.1551
      2 C2          7.6765   -1.4383  -11.6165 C.3       1 <0>        -0.1219
      3 C3          7.4927   -1.4927  -10.0985 C.3       1 <0>        -0.1340
      4 C4          7.4259   -2.9524   -9.6449 C.3       1 <0>         0.1156
      5 N1          7.2499   -3.0044   -8.1914 N.am      1 <0>        -0.7230
      6 C5          7.1646   -4.1948   -7.5651 C.2       1 <0>         0.5169
      7 O1          7.2334   -5.2229   -8.2049 O.2       1 <0>        -0.5474
      8 C6          6.9835   -4.2484   -6.0700 C.3       1 <0>        -0.1078
      9 H1          6.0583   -3.7406   -5.7976 H         1 <0>         0.1114
     10 C7          8.1652   -3.5559   -5.3881 C.3       1 <0>        -0.1511
     11 C8          6.9168   -5.7080   -5.6163 C.3       1 <0>        -0.1511
     12 C9          5.6405   -6.3533   -6.1601 C.3       1 <0>         0.0839
     13 H2          5.5970   -6.2181   -7.2408 H         1 <0>         0.1597
     14 C10         5.6452   -7.8478   -5.8329 C.3       1 <0>        -0.0089
     15 H3          6.5144   -8.3178   -6.2930 H         1 <0>         0.1562
     16 C11         4.3690   -8.4931   -6.3766 C.3       1 <0>        -0.1423
     17 C12         4.4226  -10.0044   -6.1443 C.3       1 <0>        -0.0875
     18 H4          4.6133  -10.2033   -5.0897 H         1 <0>         0.0655
     19 C13         5.5451  -10.6107   -6.9888 C.3       1 <0>        -0.0822
     20 C14         5.6914  -12.0729   -6.6546 C.ar      1 <0>        -0.0872
     21 C15         6.4503  -12.4589   -5.5653 C.ar      1 <0>        -0.1190
     22 C16         6.5876  -13.7989   -5.2546 C.ar      1 <0>        -0.1699
     23 C17         5.9635  -14.7586   -6.0354 C.ar      1 <0>         0.1069
     24 C18         5.1993  -14.3700   -7.1315 C.ar      1 <0>         0.1101
     25 C19         5.0618  -13.0249   -7.4345 C.ar      1 <0>        -0.1677
     26 O2          4.5848  -15.3081   -7.9008 O.3       1 <0>        -0.2936
     27 C20         3.8168  -14.8363   -9.0096 C.3       1 <0>         0.1022
     28 C21         3.2154  -16.0094   -9.7397 C.ar      1 <0>        -0.0558
     29 C22         3.8998  -16.6278  -10.7748 C.ar      1 <0>        -0.1489
     30 C23         3.3166  -17.7011  -11.4213 C.ar      1 <0>         0.1015
     31 N2          2.1244  -18.1369  -11.0642 N.ar      1 <0>        -0.4743
     32 C24         1.4448  -17.5734  -10.0847 C.ar      1 <0>         0.1008
     33 C25         1.9669  -16.4997   -9.3885 C.ar      1 <0>        -0.1494
     34 O3          6.0978  -16.0773   -5.7314 O.3       1 <0>        -0.3030
     35 C26         6.8975  -16.4023   -4.5925 C.3       1 <0>         0.0250
     36 C27         3.0860  -10.6301   -6.5477 C.3       1 <0>        -0.0916
     37 C28         1.9764  -10.0901   -5.6432 C.3       1 <0>        -0.1551
     38 C29         2.7754  -10.2754   -8.0032 C.3       1 <0>        -0.1593
     39 N3          5.7038   -8.0300   -4.3764 N.4       1 <0>        -0.6417
     40 O4          4.5009   -5.7372   -5.5568 O.3       1 <0>        -0.5348
     41 H5          6.8180    0.5291  -11.7978 H         1 <0>         0.0555
     42 H6          8.5851    0.5147  -11.5843 H         1 <0>         0.0557
     43 H7          7.8742    0.0601  -13.1516 H         1 <0>         0.0594
     44 H8          6.8347   -1.9317  -12.1023 H         1 <0>         0.0657
     45 H9          8.6017   -1.9461  -11.8889 H         1 <0>         0.0659
     46 H10         8.3345   -0.9994   -9.6127 H         1 <0>         0.0706
     47 H11         6.5675   -0.9849   -9.8262 H         1 <0>         0.0706
     48 H12         6.5841   -3.4457  -10.1307 H         1 <0>         0.0706
     49 H13         8.3512   -3.4602   -9.9172 H         1 <0>         0.0711
     50 H14         7.1949   -2.1822   -7.6798 H         1 <0>         0.4036
     51 H15         9.0795   -4.1133   -5.5912 H         1 <0>         0.0658
     52 H16         8.2644   -2.5417   -5.7749 H         1 <0>         0.0691
     53 H17         7.9933   -3.5193   -4.3123 H         1 <0>         0.0718
     54 H18         7.7857   -6.2463   -5.9949 H         1 <0>         0.1001
     55 H19         6.9095   -5.7500   -4.5272 H         1 <0>         0.0716
     56 H20         3.5034   -8.0767   -5.8614 H         1 <0>         0.1021
     57 H21         4.2871   -8.2924   -7.4449 H         1 <0>         0.1199
     58 H22         5.3036  -10.5020   -8.0461 H         1 <0>         0.0880
     59 H23         6.4806  -10.0937   -6.7748 H         1 <0>         0.0704
     60 H24         6.9373  -11.7119   -4.9560 H         1 <0>         0.1178
     61 H25         7.1815  -14.0978   -4.4036 H         1 <0>         0.1371
     62 H26         4.4662  -12.7205   -8.2825 H         1 <0>         0.1356
     63 H27         3.0201  -14.1855   -8.6491 H         1 <0>         0.0749
     64 H28         4.4626  -14.2785   -9.6878 H         1 <0>         0.0758
     65 H29         4.8763  -16.2751  -11.0724 H         1 <0>         0.1374
     66 H30         3.8432  -18.1883  -12.2286 H         1 <0>         0.1616
     67 H31         0.4707  -17.9579   -9.8207 H         1 <0>         0.1612
     68 H32         1.4076  -16.0455   -8.5839 H         1 <0>         0.1365
     69 H33         6.9218  -17.4842   -4.4625 H         1 <0>         0.1055
     70 H34         7.9115  -16.0315   -4.7428 H         1 <0>         0.0568
     71 H35         6.4692  -15.9390   -3.7037 H         1 <0>         0.0559
     72 H36         3.1455  -11.7134   -6.4425 H         1 <0>         0.0843
     73 H37         1.8457   -9.0235   -5.8258 H         1 <0>         0.0576
     74 H38         1.0446  -10.6126   -5.8598 H         1 <0>         0.0635
     75 H39         2.2483  -10.2495   -4.5998 H         1 <0>         0.0526
     76 H40         3.5232  -10.7274   -8.6548 H         1 <0>         0.0588
     77 H41         1.7877  -10.6537   -8.2666 H         1 <0>         0.0624
     78 H42         2.7941   -9.1924   -8.1252 H         1 <0>         0.0600
     79 H43         4.8600   -7.6680   -3.9580 H         1 <0>         0.4298
     80 H44         5.7900   -9.0125   -4.1635 H         1 <0>         0.4377
     81 H45         4.4737   -5.8184   -4.5936 H         1 <0>         0.3644
     82 H46         6.5015   -7.5346   -4.0073 H         1 <0>         0.4327
@<TRIPOS>BOND
     1    1    2 1
     2    1   41 1
     3    1   42 1
     4    1   43 1
     5    2    3 1
     6    2   44 1
     7    2   45 1
     8    3    4 1
     9    3   46 1
    10    3   47 1
    11    4    5 1
    12    4   48 1
    13    4   49 1
    14    5    6 am
    15    5   50 1
    16    6    7 2
    17    6    8 1
    18    8    9 1
    19    8   10 1
    20    8   11 1
    21   10   51 1
    22   10   52 1
    23   10   53 1
    24   11   12 1
    25   11   54 1
    26   11   55 1
    27   12   13 1
    28   12   14 1
    29   12   40 1
    30   14   15 1
    31   14   16 1
    32   14   39 1
    33   16   17 1
    34   16   56 1
    35   16   57 1
    36   17   18 1
    37   17   19 1
    38   17   36 1
    39   19   20 1
    40   19   58 1
    41   19   59 1
    42   20   25 ar
    43   20   21 ar
    44   21   22 ar
    45   21   60 1
    46   22   23 ar
    47   22   61 1
    48   23   24 ar
    49   23   34 1
    50   24   25 ar
    51   24   26 1
    52   25   62 1
    53   26   27 1
    54   27   28 1
    55   27   63 1
    56   27   64 1
    57   28   33 ar
    58   28   29 ar
    59   29   30 ar
    60   29   65 1
    61   30   31 ar
    62   30   66 1
    63   31   32 ar
    64   32   33 ar
    65   32   67 1
    66   33   68 1
    67   34   35 1
    68   35   69 1
    69   35   70 1
    70   35   71 1
    71   36   37 1
    72   36   38 1
    73   36   72 1
    74   37   73 1
    75   37   74 1
    76   37   75 1
    77   38   76 1
    78   38   77 1
    79   38   78 1
    80   39   79 1
    81   39   80 1
    82   39   82 1
    83   40   81 1
@<TRIPOS>MOLECULE
CHEMBL26076
   93    94     0     0     0
SMALL
USER_CHARGES

@<TRIPOS>ATOM
      1 C1         -8.8492   -3.8682    8.6746 C.3       1 <0>        -0.1552
      2 C2         -9.0688   -3.6375    7.1781 C.3       1 <0>        -0.1179
      3 C3         -7.9062   -4.2471    6.3921 C.3       1 <0>        -0.1032
      4 H1         -6.9650   -3.8398    6.7612 H         1 <0>         0.0780
      5 C4         -7.9100   -5.7664    6.5723 C.3       1 <0>        -0.1561
      6 C5         -8.0612   -3.9091    4.9080 C.3       1 <0>         0.1173
      7 N1         -6.8887   -4.3895    4.1727 N.am      1 <0>        -0.6938
      8 C6         -6.8050   -4.2017    2.8408 C.2       1 <0>         0.5064
      9 O1         -7.7005   -3.6350    2.2508 O.2       1 <0>        -0.5231
     10 C7         -5.5989   -4.6958    2.0844 C.3       1 <0>         0.0023
     11 H2         -5.3737   -5.7183    2.3876 H         1 <0>         0.1677
     12 C8         -4.4000   -3.7967    2.3928 C.3       1 <0>        -0.1064
     13 C9         -3.1616   -4.3329    1.6719 C.3       1 <0>        -0.1675
     14 C10        -4.6930   -2.3736    1.9132 C.3       1 <0>        -0.1727
     15 N2         -5.8777   -4.6627    0.6425 N.4       1 <0>        -0.5187
     16 C11        -6.9489   -5.6177    0.3289 C.3       1 <0>         0.2167
     17 C12        -6.4537   -7.0423    0.5865 C.3       1 <0>        -0.1414
     18 H3         -6.1846   -7.1489    1.6373 H         1 <0>         0.1217
     19 C13        -5.2274   -7.3213   -0.2849 C.3       1 <0>        -0.1296
     20 C14        -4.6114   -8.6631    0.1163 C.3       1 <0>        -0.0879
     21 C15        -4.0611   -8.5662    1.5406 C.3       1 <0>        -0.1108
     22 C16        -3.4451   -9.9081    1.9417 C.3       1 <0>        -0.1136
     23 C17        -2.3084  -10.2557    0.9784 C.3       1 <0>        -0.1206
     24 C18        -2.8587  -10.3526   -0.4459 C.3       1 <0>        -0.1203
     25 C19        -3.4747   -9.0108   -0.8470 C.3       1 <0>        -0.1131
     26 C20        -7.5625   -8.0381    0.2404 C.3       1 <0>        -0.1558
     27 C21        -7.3199   -9.3338    0.9706 C.2       1 <0>         0.3610
     28 O2         -6.4370   -9.4084    1.7911 O.2       1 <0>        -0.4008
     29 C22        -8.1790  -10.5366    0.6768 C.3       1 <0>         0.1350
     30 H4         -8.2953  -10.6454   -0.4015 H         1 <0>         0.0932
     31 C23        -9.5539  -10.3511    1.3219 C.3       1 <0>        -0.2020
     32 C24        -9.4017  -10.2891    2.8199 C.2       1 <0>         0.4900
     33 O3         -8.2918  -10.3359    3.3223 O.co2     1 <0>        -0.6822
     34 O4        -10.3885  -10.1922    3.5294 O.co2     1 <0>        -0.6953
     35 N3         -7.5415  -11.7373    1.2228 N.am      1 <0>        -0.6878
     36 C25        -7.8566  -12.9512    0.7294 C.2       1 <0>         0.5153
     37 O5         -8.7324  -13.0590   -0.1026 O.2       1 <0>        -0.5265
     38 C26        -7.1206  -14.1747    1.2115 C.3       1 <0>         0.0442
     39 O6         -7.6315  -15.3312    0.5455 O.3       1 <0>        -0.2886
     40 C27        -7.0718  -16.5268    0.8683 C.ar      1 <0>         0.1305
     41 C28        -6.0557  -16.5864    1.8109 C.ar      1 <0>        -0.2116
     42 C29        -5.4887  -17.8030    2.1377 C.ar      1 <0>        -0.0798
     43 C30        -5.9328  -18.9606    1.5258 C.ar      1 <0>        -0.1606
     44 C31        -6.9450  -18.9038    0.5856 C.ar      1 <0>        -0.0802
     45 C32        -7.5195  -17.6904    0.2599 C.ar      1 <0>        -0.1494
     46 O7         -7.3198   -5.4834   -1.0446 O.3       1 <0>        -0.5104
     47 H5         -9.6774   -3.4338    9.2346 H         1 <0>         0.0580
     48 H6         -8.7979   -4.9386    8.8735 H         1 <0>         0.0610
     49 H7         -7.9158   -3.3964    8.9819 H         1 <0>         0.0534
     50 H8        -10.0021   -4.1093    6.8709 H         1 <0>         0.0701
     51 H9         -9.1201   -2.5670    6.9792 H         1 <0>         0.0645
     52 H10        -8.8513   -6.1738    6.2033 H         1 <0>         0.0661
     53 H11        -7.0818   -6.2008    6.0123 H         1 <0>         0.0526
     54 H12        -7.7996   -6.0072    7.6296 H         1 <0>         0.0668
     55 H13        -8.9575   -4.3909    4.5173 H         1 <0>         0.0834
     56 H14        -8.1478   -2.8292    4.7884 H         1 <0>         0.0789
     57 H15        -6.1725   -4.8427    4.6446 H         1 <0>         0.4102
     58 H16        -4.2193   -3.7879    3.4677 H         1 <0>         0.1245
     59 H17        -3.3624   -4.3956    0.6024 H         1 <0>         0.0511
     60 H18        -2.3210   -3.6609    1.8449 H         1 <0>         0.0909
     61 H19        -2.9190   -5.3242    2.0548 H         1 <0>         0.0812
     62 H20        -5.5753   -1.9916    2.4268 H         1 <0>         0.0754
     63 H21        -3.8389   -1.7331    2.1329 H         1 <0>         0.0901
     64 H22        -4.8736   -2.3824    0.8383 H         1 <0>         0.0548
     65 H23        -6.1674   -3.7333    0.3772 H         1 <0>         0.4342
     66 H24        -7.8137   -5.4140    0.9603 H         1 <0>         0.1778
     67 H25        -5.5266   -7.3575   -1.3324 H         1 <0>         0.0829
     68 H26        -4.4934   -6.5279   -0.1439 H         1 <0>         0.0532
     69 H27        -5.3743   -9.4404    0.0736 H         1 <0>         0.0880
     70 H28        -3.2982   -7.7889    1.5833 H         1 <0>         0.0435
     71 H29        -4.8710   -8.3186    2.2269 H         1 <0>         0.0866
     72 H30        -3.0531   -9.8391    2.9565 H         1 <0>         0.0589
     73 H31        -4.2081  -10.6854    1.8990 H         1 <0>         0.0705
     74 H32        -1.5455   -9.4784    1.0211 H         1 <0>         0.0558
     75 H33        -1.8696  -11.2117    1.2642 H         1 <0>         0.0601
     76 H34        -2.0489  -10.6003   -1.1322 H         1 <0>         0.0603
     77 H35        -3.6216  -11.1299   -0.4886 H         1 <0>         0.0629
     78 H36        -3.8667   -9.0798   -1.8618 H         1 <0>         0.0594
     79 H37        -2.7117   -8.2335   -0.8044 H         1 <0>         0.0575
     80 H38        -8.5265   -7.6271    0.5401 H         1 <0>         0.1101
     81 H39        -7.5639   -8.2213   -0.8341 H         1 <0>         0.1097
     82 H40       -10.0013   -9.4240    0.9635 H         1 <0>         0.0671
     83 H41       -10.1962  -11.1908    1.0563 H         1 <0>         0.0807
     84 H42        -6.8925  -11.6585    1.9395 H         1 <0>         0.4160
     85 H43        -6.0580  -14.0693    0.9927 H         1 <0>         0.0899
     86 H44        -7.2611  -14.2830    2.2869 H         1 <0>         0.0945
     87 H45        -5.7080  -15.6823    2.2887 H         1 <0>         0.1279
     88 H46        -4.6977  -17.8499    2.8715 H         1 <0>         0.1246
     89 H47        -5.4880  -19.9107    1.7823 H         1 <0>         0.1232
     90 H48        -7.2899  -19.8094    0.1088 H         1 <0>         0.1294
     91 H49        -8.3132  -17.6472   -0.4713 H         1 <0>         0.1321
     92 H50        -6.5974   -5.6510   -1.6652 H         1 <0>         0.3922
     93 H51        -5.0438   -4.9134    0.1328 H         1 <0>         0.4216
@<TRIPOS>BOND
     1    1    2 1
     2    1   47 1
     3    1   48 1
     4    1   49 1
     5    2    3 1
     6    2   50 1
     7    2   51 1
     8    3    4 1
     9    3    5 1
    10    3    6 1
    11    5   52 1
    12    5   53 1
    13    5   54 1
    14    6    7 1
    15    6   55 1
    16    6   56 1
    17    7    8 am
    18    7   57 1
    19    8    9 2
    20    8   10 1
    21   10   11 1
    22   10   12 1
    23   10   15 1
    24   12   13 1
    25   12   14 1
    26   12   58 1
    27   13   59 1
    28   13   60 1
    29   13   61 1
    30   14   62 1
    31   14   63 1
    32   14   64 1
    33   15   16 1
    34   15   65 1
    35   15   93 1
    36   16   17 1
    37   16   46 1
    38   16   66 1
    39   17   18 1
    40   17   19 1
    41   17   26 1
    42   19   20 1
    43   19   67 1
    44   19   68 1
    45   20   25 1
    46   20   21 1
    47   20   69 1
    48   21   22 1
    49   21   70 1
    50   21   71 1
    51   22   23 1
    52   22   72 1
    53   22   73 1
    54   23   24 1
    55   23   74 1
    56   23   75 1
    57   24   25 1
    58   24   76 1
    59   24   77 1
    60   25   78 1
    61   25   79 1
    62   26   27 1
    63   26   80 1
    64   26   81 1
    65   27   28 2
    66   27   29 1
    67   29   30 1
    68   29   31 1
    69   29   35 1
    70   31   32 1
    71   31   82 1
    72   31   83 1
    73   32   33 2
    74   32   34 1
    75   35   36 am
    76   35   84 1
    77   36   37 2
    78   36   38 1
    79   38   39 1
    80   38   85 1
    81   38   86 1
    82   39   40 1
    83   40   45 ar
    84   40   41 ar
    85   41   42 ar
    86   41   87 1
    87   42   43 ar
    88   42   88 1
    89   43   44 ar
    90   43   89 1
    91   44   45 ar
    92   44   90 1
    93   45   91 1
    94   46   92 1
@<TRIPOS>MOLECULE
CHEMBL26076__1
   92    93     0     0     0
SMALL
USER_CHARGES

@<TRIPOS>ATOM
      1 C1         12.0148   -3.6174    3.2996 C.3       1 <0>        -0.1530
      2 C2         10.8192   -3.3926    4.2274 C.3       1 <0>        -0.1179
      3 C3          9.5753   -4.0484    3.6245 C.3       1 <0>        -0.1014
      4 H1          9.4186   -3.6702    2.6143 H         1 <0>         0.0750
      5 C4          9.7708   -5.5651    3.5767 C.3       1 <0>        -0.1546
      6 C5          8.3557   -3.7184    4.4875 C.3       1 <0>         0.1213
      7 N1          7.1477   -4.2449    3.8475 N.am      1 <0>        -0.7118
      8 C6          5.9455   -4.0718    4.4316 C.2       1 <0>         0.5153
      9 O1          5.8638   -3.4801    5.4871 O.2       1 <0>        -0.5140
     10 C7          4.7029   -4.6134    3.7732 C.3       1 <0>         0.0040
     11 H2          4.8792   -5.6405    3.4535 H         1 <0>         0.1505
     12 C8          4.3541   -3.7535    2.5568 C.3       1 <0>        -0.1071
     13 C9          3.1266   -4.3374    1.8544 C.3       1 <0>        -0.1631
     14 C10         4.0494   -2.3250    3.0125 C.3       1 <0>        -0.1675
     15 N2          3.5887   -4.5829    4.7301 N.4       1 <0>        -0.4955
     16 C11         3.8713   -5.5027    5.8402 C.3       1 <0>         0.2370
     17 C12         3.8847   -6.9414    5.3196 C.3       1 <0>        -0.1110
     18 H3          4.6612   -7.0464    4.5619 H         1 <0>         0.0687
     19 C13         2.5237   -7.2739    4.7047 C.3       1 <0>        -0.0966
     20 C14         2.5983   -8.6327    4.0054 C.3       1 <0>        -0.0913
     21 C15         3.5513   -8.5405    2.8120 C.3       1 <0>        -0.1074
     22 C16         3.6259   -9.8993    2.1127 C.3       1 <0>        -0.1116
     23 C17         2.2323  -10.2980    1.6230 C.3       1 <0>        -0.1173
     24 C18         1.2793  -10.3902    2.8164 C.3       1 <0>        -0.1177
     25 C19         1.2047   -9.0314    3.5157 C.3       1 <0>        -0.1134
     26 C20         4.1691   -7.9001    6.4776 C.3       1 <0>        -0.1350
     27 C21         4.7141   -9.1959    5.9346 C.2       1 <0>         0.3591
     28 O2          4.9825   -9.2936    4.7613 O.2       1 <0>        -0.4118
     29 C22         4.9242  -10.3699    6.8559 C.3       1 <0>         0.1298
     30 H4          4.0532  -10.4859    7.5010 H         1 <0>         0.0907
     31 C23         6.1667  -10.1279    7.7152 C.3       1 <0>        -0.1991
     32 C24         7.3835  -10.0533    6.8292 C.2       1 <0>         0.4928
     33 O3          7.2619  -10.1331    5.6187 O.co2     1 <0>        -0.6798
     34 O4          8.4894   -9.9132    7.3229 O.co2     1 <0>        -0.7042
     35 N3          5.1092  -11.5869    6.0617 N.am      1 <0>        -0.6816
     36 C25         4.8741  -12.7939    6.6134 C.2       1 <0>         0.5119
     37 O5          4.5974  -12.8787    7.7912 O.2       1 <0>        -0.5323
     38 C26         4.9551  -14.0380    5.7669 C.3       1 <0>         0.0441
     39 O6          4.6676  -15.1823    6.5731 O.3       1 <0>        -0.2872
     40 C27         4.6986  -16.3938    5.9582 C.ar      1 <0>         0.1344
     41 C28         5.0051  -16.4801    4.6079 C.ar      1 <0>        -0.2118
     42 C29         5.0365  -17.7128    3.9853 C.ar      1 <0>        -0.0797
     43 C30         4.7622  -18.8601    4.7066 C.ar      1 <0>        -0.1647
     44 C31         4.4559  -18.7768    6.0524 C.ar      1 <0>        -0.0816
     45 C32         4.4293  -17.5470    6.6810 C.ar      1 <0>        -0.1513
     46 O7          2.8596   -5.3674    6.8402 O.3       1 <0>        -0.8106
     47 H5         11.8068   -3.1751    2.3253 H         1 <0>         0.0519
     48 H6         12.9009   -3.1502    3.7291 H         1 <0>         0.0543
     49 H7         12.1883   -4.6872    3.1833 H         1 <0>         0.0601
     50 H8         11.0271   -3.8349    5.2017 H         1 <0>         0.0690
     51 H9         10.6457   -2.3228    4.3437 H         1 <0>         0.0629
     52 H10         8.8847   -6.0323    3.1472 H         1 <0>         0.0556
     53 H11        10.6397   -5.8002    2.9619 H         1 <0>         0.0615
     54 H12         9.9275   -5.9433    4.5869 H         1 <0>         0.0651
     55 H13         8.4731   -4.1728    5.4713 H         1 <0>         0.0771
     56 H14         8.2683   -2.6372    4.5947 H         1 <0>         0.0710
     57 H15         7.2131   -4.7182    3.0032 H         1 <0>         0.4042
     58 H16         5.1970   -3.7424    1.8659 H         1 <0>         0.1070
     59 H17         3.3623   -5.3334    1.4793 H         1 <0>         0.0747
     60 H18         2.2997   -4.4018    2.5616 H         1 <0>         0.0561
     61 H19         2.8436   -3.6932    1.0220 H         1 <0>         0.0780
     62 H20         4.9238   -1.9090    3.5129 H         1 <0>         0.0690
     63 H21         3.8009   -1.7124    2.1459 H         1 <0>         0.0773
     64 H22         3.2064   -2.3361    3.7034 H         1 <0>         0.0586
     65 H23         3.4791   -3.6463    5.0890 H         1 <0>         0.4054
     66 H24         4.8432   -5.2635    6.2718 H         1 <0>         0.0608
     67 H25         1.7692   -7.3106    5.4905 H         1 <0>         0.0774
     68 H26         2.2555   -6.5061    3.9790 H         1 <0>         0.0351
     69 H27         2.9654   -9.3824    4.7064 H         1 <0>         0.0779
     70 H28         3.1842   -7.7908    2.1110 H         1 <0>         0.0380
     71 H29         4.5441   -8.2564    3.1609 H         1 <0>         0.0890
     72 H30         4.3047   -9.8336    1.2625 H         1 <0>         0.0520
     73 H31         3.9929  -10.6490    2.8137 H         1 <0>         0.0671
     74 H32         1.8652   -9.5483    0.9220 H         1 <0>         0.0533
     75 H33         2.2854  -11.2661    1.1248 H         1 <0>         0.0529
     76 H34         0.2865  -10.6743    2.4675 H         1 <0>         0.0532
     77 H35         1.6464  -11.1399    3.5174 H         1 <0>         0.0593
     78 H36         0.5258   -9.0971    4.3659 H         1 <0>         0.0564
     79 H37         0.8377   -8.2817    2.8147 H         1 <0>         0.0536
     80 H38         4.9007   -7.4513    7.1495 H         1 <0>         0.0925
     81 H39         3.2458   -8.0945    7.0234 H         1 <0>         0.0982
     82 H40         6.0553   -9.1898    8.2591 H         1 <0>         0.0698
     83 H41         6.2833  -10.9474    8.4243 H         1 <0>         0.0747
     84 H42         5.4008  -11.5241    5.1387 H         1 <0>         0.4147
     85 H43         4.2297  -13.9735    4.9558 H         1 <0>         0.0899
     86 H44         5.9583  -14.1296    5.3506 H         1 <0>         0.0933
     87 H45         5.2188  -15.5842    4.0439 H         1 <0>         0.1293
     88 H46         5.2751  -17.7805    2.9342 H         1 <0>         0.1235
     89 H47         4.7868  -19.8229    4.2180 H         1 <0>         0.1211
     90 H48         4.2416  -19.6744    6.6135 H         1 <0>         0.1275
     91 H49         4.1944  -17.4828    7.7332 H         1 <0>         0.1316
     92 H50         2.7389   -4.8669    4.2661 H         1 <0>         0.3972
@<TRIPOS>BOND
     1    1    2 1
     2    1   47 1
     3    1   48 1
     4    1   49 1
     5    2    3 1
     6    2   50 1
     7    2   51 1
     8    3    4 1
     9    3    5 1
    10    3    6 1
    11    5   52 1
    12    5   53 1
    13    5   54 1
    14    6    7 1
    15    6   55 1
    16    6   56 1
    17    7    8 am
    18    7   57 1
    19    8    9 2
    20    8   10 1
    21   10   11 1
    22   10   12 1
    23   10   15 1
    24   12   13 1
    25   12   14 1
    26   12   58 1
    27   13   59 1
    28   13   60 1
    29   13   61 1
    30   14   62 1
    31   14   63 1
    32   14   64 1
    33   15   16 1
    34   15   65 1
    35   15   92 1
    36   16   17 1
    37   16   46 1
    38   16   66 1
    39   17   18 1
    40   17   19 1
    41   17   26 1
    42   19   20 1
    43   19   67 1
    44   19   68 1
    45   20   25 1
    46   20   21 1
    47   20   69 1
    48   21   22 1
    49   21   70 1
    50   21   71 1
    51   22   23 1
    52   22   72 1
    53   22   73 1
    54   23   24 1
    55   23   74 1
    56   23   75 1
    57   24   25 1
    58   24   76 1
    59   24   77 1
    60   25   78 1
    61   25   79 1
    62   26   27 1
    63   26   80 1
    64   26   81 1
    65   27   28 2
    66   27   29 1
    67   29   30 1
    68   29   31 1
    69   29   35 1
    70   31   32 1
    71   31   82 1
    72   31   83 1
    73   32   33 2
    74   32   34 1
    75   35   36 am
    76   35   84 1
    77   36   37 2
    78   36   38 1
    79   38   39 1
    80   38   85 1
    81   38   86 1
    82   39   40 1
    83   40   45 ar
    84   40   41 ar
    85   41   42 ar
    86   41   87 1
    87   42   43 ar
    88   42   88 1
    89   43   44 ar
    90   43   89 1
    91   44   45 ar
    92   44   90 1
    93   45   91 1
@<TRIPOS>MOLECULE
CHEMBL26076__2
   93    94     0     0     0
SMALL
USER_CHARGES

@<TRIPOS>ATOM
      1 C1         -6.3605    2.8415   -0.4660 C.3       1 <0>        -0.1558
      2 C2         -6.1008    1.3875   -0.8652 C.3       1 <0>        -0.1182
      3 C3         -6.1701    0.4974    0.3772 C.3       1 <0>        -0.1048
      4 H1         -5.4775    0.8714    1.1313 H         1 <0>         0.0799
      5 C4         -7.5933    0.5150    0.9385 C.3       1 <0>        -0.1549
      6 C5         -5.7883   -0.9354    0.0001 C.3       1 <0>         0.1179
      7 N1         -5.7386   -1.7618    1.2087 N.am      1 <0>        -0.6992
      8 C6         -5.4208   -3.0685    1.1190 C.2       1 <0>         0.5097
      9 O1         -5.1760   -3.5602    0.0377 O.2       1 <0>        -0.5227
     10 C7         -5.3696   -3.9186    2.3623 C.3       1 <0>         0.0037
     11 H2         -6.2411   -3.7083    2.9823 H         1 <0>         0.1684
     12 C8         -4.0960   -3.5980    3.1472 C.3       1 <0>        -0.1077
     13 C9         -4.0975   -4.3791    4.4629 C.3       1 <0>        -0.1679
     14 C10        -2.8727   -3.9964    2.3191 C.3       1 <0>        -0.1753
     15 N2         -5.3680   -5.3383    1.9851 N.4       1 <0>        -0.5203
     16 C11        -6.6428   -5.6741    1.3369 C.3       1 <0>         0.2149
     17 C12        -6.5927   -7.1169    0.8301 C.3       1 <0>        -0.1346
     18 H3         -6.4241   -7.7912    1.6696 H         1 <0>         0.1184
     19 C13        -5.4521   -7.2636   -0.1791 C.3       1 <0>        -0.1171
     20 C14        -5.2718   -8.7410   -0.5336 C.3       1 <0>        -0.0903
     21 C15        -4.7984   -9.5081    0.7026 C.3       1 <0>        -0.1103
     22 C16        -4.6181  -10.9855    0.3480 C.3       1 <0>        -0.1136
     23 C17        -3.5769  -11.1195   -0.7650 C.3       1 <0>        -0.1206
     24 C18        -4.0503  -10.3524   -2.0013 C.3       1 <0>        -0.1198
     25 C19        -4.2306   -8.8750   -1.6467 C.3       1 <0>        -0.1132
     26 C20        -7.9200   -7.4662    0.1539 C.3       1 <0>        -0.1606
     27 C21        -8.0968   -8.9627    0.1376 C.2       1 <0>         0.3594
     28 O2         -7.3196   -9.6691    0.7336 O.2       1 <0>        -0.4018
     29 C22        -9.2435   -9.5777   -0.6226 C.3       1 <0>         0.1327
     30 H4         -9.3242   -9.1067   -1.6023 H         1 <0>         0.0957
     31 C23       -10.5438   -9.3638    0.1547 C.3       1 <0>        -0.2003
     32 C24       -10.4548  -10.0655    1.4854 C.2       1 <0>         0.4895
     33 O3         -9.4983  -10.7788    1.7357 O.co2     1 <0>        -0.6808
     34 O4        -11.3394   -9.9199    2.3118 O.co2     1 <0>        -0.6967
     35 N3         -9.0048  -11.0135   -0.7893 N.am      1 <0>        -0.6851
     36 C25        -9.5417  -11.6687   -1.8375 C.2       1 <0>         0.5146
     37 O5        -10.2961  -11.0915   -2.5916 O.2       1 <0>        -0.5306
     38 C26        -9.2046  -13.1186   -2.0727 C.3       1 <0>         0.0439
     39 O6         -9.8918  -13.5848   -3.2357 O.3       1 <0>        -0.2889
     40 C27        -9.6954  -14.8821   -3.5898 C.ar      1 <0>         0.1306
     41 C28        -8.8629  -15.6913   -2.8303 C.ar      1 <0>        -0.2114
     42 C29        -8.6653  -17.0097   -3.1921 C.ar      1 <0>        -0.0796
     43 C30        -9.2959  -17.5230   -4.3104 C.ar      1 <0>        -0.1609
     44 C31       -10.1256  -16.7184   -5.0693 C.ar      1 <0>        -0.0805
     45 C32       -10.3314  -15.4010   -4.7082 C.ar      1 <0>        -0.1498
     46 O7         -7.7074   -5.5373    2.2802 O.3       1 <0>        -0.5173
     47 H5         -6.3111    3.4757   -1.3512 H         1 <0>         0.0592
     48 H6         -7.3495    2.9234   -0.0152 H         1 <0>         0.0591
     49 H7         -5.6059    3.1613    0.2526 H         1 <0>         0.0549
     50 H8         -6.8553    1.0677   -1.5839 H         1 <0>         0.0687
     51 H9         -5.1118    1.3057   -1.3161 H         1 <0>         0.0666
     52 H10        -8.2859    0.1410    0.1844 H         1 <0>         0.0617
     53 H11        -7.6427   -0.1192    1.8236 H         1 <0>         0.0516
     54 H12        -7.8653    1.5357    1.2072 H         1 <0>         0.0674
     55 H13        -6.5314   -1.3406   -0.6868 H         1 <0>         0.0810
     56 H14        -4.8102   -0.9361   -0.4811 H         1 <0>         0.0793
     57 H15        -5.9343   -1.3685    2.0735 H         1 <0>         0.4092
     58 H16        -4.0590   -2.5295    3.3591 H         1 <0>         0.1216
     59 H17        -4.1823   -5.4452    4.2524 H         1 <0>         0.0552
     60 H18        -3.1688   -4.1875    5.0002 H         1 <0>         0.0901
     61 H19        -4.9427   -4.0609    5.0733 H         1 <0>         0.0791
     62 H20        -2.8716   -3.4399    1.3818 H         1 <0>         0.0749
     63 H21        -1.9653   -3.7680    2.8783 H         1 <0>         0.0910
     64 H22        -2.9097   -5.0649    2.1072 H         1 <0>         0.0553
     65 H23        -4.6084   -5.5154    1.3451 H         1 <0>         0.4382
     66 H24        -6.8123   -4.9998    0.4974 H         1 <0>         0.1752
     67 H25        -5.6902   -6.6999   -1.0811 H         1 <0>         0.0844
     68 H26        -4.5298   -6.8794    0.2566 H         1 <0>         0.0513
     69 H27        -6.2224   -9.1516   -0.8740 H         1 <0>         0.0860
     70 H28        -3.8478   -9.0975    1.0430 H         1 <0>         0.0423
     71 H29        -5.5401   -9.4127    1.4956 H         1 <0>         0.0874
     72 H30        -4.2808  -11.5320    1.2288 H         1 <0>         0.0582
     73 H31        -5.5687  -11.3961    0.0077 H         1 <0>         0.0702
     74 H32        -2.6263  -10.7089   -0.4246 H         1 <0>         0.0555
     75 H33        -3.4484  -12.1720   -1.0176 H         1 <0>         0.0595
     76 H34        -3.3086  -10.4478   -2.7942 H         1 <0>         0.0597
     77 H35        -5.0009  -10.7630   -2.3416 H         1 <0>         0.0624
     78 H36        -4.5679   -8.3285   -2.5274 H         1 <0>         0.0594
     79 H37        -3.2800   -8.4644   -1.3063 H         1 <0>         0.0572
     80 H38        -8.7408   -7.0094    0.7068 H         1 <0>         0.1175
     81 H39        -7.9169   -7.0896   -0.8690 H         1 <0>         0.1059
     82 H40       -10.6993   -8.2971    0.3162 H         1 <0>         0.0681
     83 H41       -11.3791   -9.7705   -0.4154 H         1 <0>         0.0791
     84 H42        -8.4603  -11.4926   -0.1451 H         1 <0>         0.4189
     85 H43        -8.1296  -13.2225   -2.2199 H         1 <0>         0.0903
     86 H44        -9.5117  -13.7078   -1.2086 H         1 <0>         0.0949
     87 H45        -8.3696  -15.2907   -1.9570 H         1 <0>         0.1283
     88 H46        -8.0173  -17.6401   -2.6011 H         1 <0>         0.1246
     89 H47        -9.1398  -18.5539   -4.5918 H         1 <0>         0.1231
     90 H48       -10.6168  -17.1215   -5.9427 H         1 <0>         0.1292
     91 H49       -10.9831  -14.7742   -5.2988 H         1 <0>         0.1318
     92 H50        -7.5840   -6.0514    3.0898 H         1 <0>         0.4003
     93 H51        -5.2510   -5.9057    2.8112 H         1 <0>         0.4270
@<TRIPOS>BOND
     1    1    2 1
     2    1   47 1
     3    1   48 1
     4    1   49 1
     5    2    3 1
     6    2   50 1
     7    2   51 1
     8    3    4 1
     9    3    5 1
    10    3    6 1
    11    5   52 1
    12    5   53 1
    13    5   54 1
    14    6    7 1
    15    6   55 1
    16    6   56 1
    17    7    8 am
    18    7   57 1
    19    8    9 2
    20    8   10 1
    21   10   11 1
    22   10   12 1
    23   10   15 1
    24   12   13 1
    25   12   14 1
    26   12   58 1
    27   13   59 1
    28   13   60 1
    29   13   61 1
    30   14   62 1
    31   14   63 1
    32   14   64 1
    33   15   16 1
    34   15   65 1
    35   15   93 1
    36   16   17 1
    37   16   46 1
    38   16   66 1
    39   17   18 1
    40   17   19 1
    41   17   26 1
    42   19   20 1
    43   19   67 1
    44   19   68 1
    45   20   25 1
    46   20   21 1
    47   20   69 1
    48   21   22 1
    49   21   70 1
    50   21   71 1
    51   22   23 1
    52   22   72 1
    53   22   73 1
    54   23   24 1
    55   23   74 1
    56   23   75 1
    57   24   25 1
    58   24   76 1
    59   24   77 1
    60   25   78 1
    61   25   79 1
    62   26   27 1
    63   26   80 1
    64   26   81 1
    65   27   28 2
    66   27   29 1
    67   29   30 1
    68   29   31 1
    69   29   35 1
    70   31   32 1
    71   31   82 1
    72   31   83 1
    73   32   33 2
    74   32   34 1
    75   35   36 am
    76   35   84 1
    77   36   37 2
    78   36   38 1
    79   38   39 1
    80   38   85 1
    81   38   86 1
    82   39   40 1
    83   40   45 ar
    84   40   41 ar
    85   41   42 ar
    86   41   87 1
    87   42   43 ar
    88   42   88 1
    89   43   44 ar
    90   43   89 1
    91   44   45 ar
    92   44   90 1
    93   45   91 1
    94   46   92 1
@<TRIPOS>MOLECULE
CHEMBL26076__3
   92    93     0     0     0
SMALL
USER_CHARGES

@<TRIPOS>ATOM
      1 C1          1.4427    2.4825   10.1557 C.3       1 <0>        -0.1535
      2 C2          1.1179    1.1157    9.5496 C.3       1 <0>        -0.1177
      3 C3          2.2338    0.7071    8.5858 C.3       1 <0>        -0.1032
      4 H1          2.3755    1.4902    7.8410 H         1 <0>         0.0769
      5 C4          3.5337    0.5049    9.3669 C.3       1 <0>        -0.1541
      6 C5          1.8507   -0.5986    7.8863 C.3       1 <0>         0.1223
      7 N1          2.8616   -0.9273    6.8782 N.am      1 <0>        -0.7153
      8 C6          2.7319   -2.0424    6.1324 C.2       1 <0>         0.5235
      9 O1          1.7783   -2.7738    6.2960 O.2       1 <0>        -0.5249
     10 C7          3.7717   -2.3805    5.0954 C.3       1 <0>         0.0240
     11 H2          4.7661   -2.2613    5.5255 H         1 <0>         0.1604
     12 C8          3.6192   -1.4432    3.8958 C.3       1 <0>        -0.1090
     13 C9          4.7179   -1.7404    2.8733 C.3       1 <0>        -0.1610
     14 C10         2.2492   -1.6601    3.2499 C.3       1 <0>        -0.1677
     15 N2          3.5915   -3.7708    4.6564 N.4       1 <0>        -0.4987
     16 C11         3.8601   -4.6778    5.7803 C.3       1 <0>         0.2357
     17 C12         3.5733   -6.1186    5.3527 C.3       1 <0>        -0.1096
     18 H3          4.2276   -6.3886    4.5237 H         1 <0>         0.0906
     19 C13         2.1136   -6.2383    4.9103 C.3       1 <0>        -0.1161
     20 C14         1.8800   -7.6176    4.2905 C.3       1 <0>        -0.0881
     21 C15         2.6919   -7.7407    2.9995 C.3       1 <0>        -0.1095
     22 C16         2.4583   -9.1199    2.3798 C.3       1 <0>        -0.1119
     23 C17         0.9710   -9.2925    2.0653 C.3       1 <0>        -0.1177
     24 C18         0.1591   -9.1693    3.3563 C.3       1 <0>        -0.1174
     25 C19         0.3927   -7.7901    3.9761 C.3       1 <0>        -0.1135
     26 C20         3.8280   -7.0606    6.5311 C.3       1 <0>        -0.1433
     27 C21         4.0838   -8.4531    6.0149 C.2       1 <0>         0.3617
     28 O2          4.1922   -8.6466    4.8278 O.2       1 <0>        -0.4090
     29 C22         4.2044   -9.6042    6.9800 C.3       1 <0>         0.1303
     30 H4          3.4085   -9.5411    7.7220 H         1 <0>         0.0887
     31 C23         5.5623   -9.5411    7.6820 C.3       1 <0>        -0.1981
     32 C24         6.6615   -9.7194    6.6666 C.2       1 <0>         0.4933
     33 O3          6.3865   -9.8353    5.4845 O.co2     1 <0>        -0.6797
     34 O4          7.8258   -9.7477    7.0272 O.co2     1 <0>        -0.7046
     35 N3          4.0910  -10.8686    6.2487 N.am      1 <0>        -0.6808
     36 C25         3.7240  -11.9916    6.8972 C.2       1 <0>         0.5122
     37 O5          3.5754  -11.9758    8.1007 O.2       1 <0>        -0.5345
     38 C26         3.4982  -13.2670    6.1268 C.3       1 <0>         0.0436
     39 O6          3.1197  -14.3081    7.0295 O.3       1 <0>        -0.2873
     40 C27         2.8773  -15.5326    6.4922 C.ar      1 <0>         0.1346
     41 C28         3.0068  -15.7295    5.1251 C.ar      1 <0>        -0.2116
     42 C29         2.7602  -16.9754    4.5814 C.ar      1 <0>        -0.0796
     43 C30         2.3843  -18.0254    5.3986 C.ar      1 <0>        -0.1649
     44 C31         2.2542  -17.8317    6.7614 C.ar      1 <0>        -0.0819
     45 C32         2.5055  -16.5893    7.3107 C.ar      1 <0>        -0.1517
     46 O7          5.2298   -4.5604    6.1704 O.3       1 <0>        -0.8116
     47 H5          1.5245    3.2227    9.3598 H         1 <0>         0.0533
     48 H6          0.6478    2.7736   10.8423 H         1 <0>         0.0552
     49 H7          2.3871    2.4248   10.6968 H         1 <0>         0.0583
     50 H8          1.0361    0.3755   10.3455 H         1 <0>         0.0673
     51 H9          0.1735    1.1734    9.0085 H         1 <0>         0.0646
     52 H10         4.3286    0.2138    8.6803 H         1 <0>         0.0559
     53 H11         3.8066    1.4351    9.8653 H         1 <0>         0.0618
     54 H12         3.3920   -0.2783   10.1117 H         1 <0>         0.0606
     55 H13         1.7958   -1.4019    8.6211 H         1 <0>         0.0742
     56 H14         0.8807   -0.4811    7.4034 H         1 <0>         0.0710
     57 H15         3.6242   -0.3424    6.7474 H         1 <0>         0.4040
     58 H16         3.7037   -0.4090    4.2297 H         1 <0>         0.1045
     59 H17         5.6920   -1.5333    3.3162 H         1 <0>         0.0748
     60 H18         4.6675   -2.7891    2.5804 H         1 <0>         0.0576
     61 H19         4.5768   -1.1107    1.9949 H         1 <0>         0.0756
     62 H20         1.4665   -1.4484    3.9783 H         1 <0>         0.0675
     63 H21         2.1406   -0.9923    2.3953 H         1 <0>         0.0773
     64 H22         2.1647   -2.6943    2.9160 H         1 <0>         0.0563
     65 H23         2.6435   -3.9025    4.3371 H         1 <0>         0.3940
     66 H24         3.2189   -4.4140    6.6214 H         1 <0>         0.0578
     67 H25         1.4607   -6.1128    5.7740 H         1 <0>         0.0650
     68 H26         1.8930   -5.4666    4.1728 H         1 <0>         0.0398
     69 H27         2.1949   -8.3895    4.9928 H         1 <0>         0.0792
     70 H28         2.3770   -6.9688    2.2973 H         1 <0>         0.0378
     71 H29         3.7515   -7.6178    3.2236 H         1 <0>         0.0943
     72 H30         3.0367   -9.2077    1.4601 H         1 <0>         0.0532
     73 H31         2.7732   -9.8918    3.0820 H         1 <0>         0.0673
     74 H32         0.6561   -8.5206    1.3631 H         1 <0>         0.0532
     75 H33         0.8046  -10.2751    1.6238 H         1 <0>         0.0532
     76 H34        -0.9005   -9.2923    3.1323 H         1 <0>         0.0529
     77 H35         0.4739   -9.9413    4.0585 H         1 <0>         0.0596
     78 H36        -0.1857   -7.7024    4.8958 H         1 <0>         0.0548
     79 H37         0.0778   -7.0182    3.2738 H         1 <0>         0.0536
     80 H38         4.6971   -6.7153    7.0910 H         1 <0>         0.1154
     81 H39         2.9553   -7.0698    7.1841 H         1 <0>         0.0800
     82 H40         5.6735   -8.5737    8.1717 H         1 <0>         0.0713
     83 H41         5.6235  -10.3346    8.4268 H         1 <0>         0.0731
     84 H42         4.2801  -10.8975    5.2977 H         1 <0>         0.4154
     85 H43         2.7047  -13.1140    5.3953 H         1 <0>         0.0898
     86 H44         4.4172  -13.5483    5.6125 H         1 <0>         0.0939
     87 H45         3.2997  -14.9095    4.4862 H         1 <0>         0.1297
     88 H46         2.8609  -17.1292    3.5172 H         1 <0>         0.1236
     89 H47         2.1917  -18.9986    4.9716 H         1 <0>         0.1209
     90 H48         1.9601  -18.6534    7.3976 H         1 <0>         0.1272
     91 H49         2.4080  -16.4395    8.3758 H         1 <0>         0.1314
     92 H50         4.2313   -3.9710    3.9023 H         1 <0>         0.4024
@<TRIPOS>BOND
     1    1    2 1
     2    1   47 1
     3    1   48 1
     4    1   49 1
     5    2    3 1
     6    2   50 1
     7    2   51 1
     8    3    4 1
     9    3    5 1
    10    3    6 1
    11    5   52 1
    12    5   53 1
    13    5   54 1
    14    6    7 1
    15    6   55 1
    16    6   56 1
    17    7    8 am
    18    7   57 1
    19    8    9 2
    20    8   10 1
    21   10   11 1
    22   10   12 1
    23   10   15 1
    24   12   13 1
    25   12   14 1
    26   12   58 1
    27   13   59 1
    28   13   60 1
    29   13   61 1
    30   14   62 1
    31   14   63 1
    32   14   64 1
    33   15   16 1
    34   15   65 1
    35   15   92 1
    36   16   17 1
    37   16   46 1
    38   16   66 1
    39   17   18 1
    40   17   19 1
    41   17   26 1
    42   19   20 1
    43   19   67 1
    44   19   68 1
    45   20   25 1
    46   20   21 1
    47   20   69 1
    48   21   22 1
    49   21   70 1
    50   21   71 1
    51   22   23 1
    52   22   72 1
    53   22   73 1
    54   23   24 1
    55   23   74 1
    56   23   75 1
    57   24   25 1
    58   24   76 1
    59   24   77 1
    60   25   78 1
    61   25   79 1
    62   26   27 1
    63   26   80 1
    64   26   81 1
    65   27   28 2
    66   27   29 1
    67   29   30 1
    68   29   31 1
    69   29   35 1
    70   31   32 1
    71   31   82 1
    72   31   83 1
    73   32   33 2
    74   32   34 1
    75   35   36 am
    76   35   84 1
    77   36   37 2
    78   36   38 1
    79   38   39 1
    80   38   85 1
    81   38   86 1
    82   39   40 1
    83   40   45 ar
    84   40   41 ar
    85   41   42 ar
    86   41   87 1
    87   42   43 ar
    88   42   88 1
    89   43   44 ar
    90   43   89 1
    91   44   45 ar
    92   44   90 1
    93   45   91 1
@<TRIPOS>MOLECULE
CHEMBL73278
   96    98     0     0     0
SMALL
USER_CHARGES

@<TRIPOS>ATOM
      1 C1         -1.8052    1.4323    0.0440 C.3       1 <0>        -0.1509
      2 C2         -1.5553   -0.0770    0.0228 C.3       1 <0>        -0.0936
      3 C3         -0.7741   -0.4823    1.2743 C.3       1 <0>        -0.1479
      4 C4         -2.8951   -0.8153   -0.0035 C.3       1 <0>        -0.1468
      5 C5         -2.6466   -2.3179   -0.1504 C.3       1 <0>         0.0786
      6 H1         -1.9800   -2.6552    0.6432 H         1 <0>         0.0973
      7 C6         -3.9771   -3.0669   -0.0517 C.3       1 <0>         0.0650
      8 H2         -4.6437   -2.7296   -0.8453 H         1 <0>         0.1172
      9 C7         -3.7285   -4.5694   -0.1986 C.3       1 <0>         0.1184
     10 C8         -5.0590   -5.3185   -0.0999 C.3       1 <0>        -0.1254
     11 C9         -4.8278   -6.8065   -0.3706 C.3       1 <0>        -0.0763
     12 C10        -4.3631   -6.9957   -1.8159 C.3       1 <0>        -0.1081
     13 C11        -4.1319   -8.4837   -2.0866 C.3       1 <0>        -0.1071
     14 C12        -5.4371   -9.2510   -1.8660 C.3       1 <0>        -0.1234
     15 C13        -5.9018   -9.0618   -0.4206 C.3       1 <0>        -0.1137
     16 C14        -6.1330   -7.5738   -0.1499 C.3       1 <0>        -0.1181
     17 N1         -2.8325   -5.0228    0.8681 N.am      1 <0>        -0.7128
     18 C15        -2.0772   -6.1248    0.6908 C.2       1 <0>         0.5129
     19 O1         -2.1393   -6.7412   -0.3519 O.2       1 <0>        -0.5036
     20 C16        -1.1555   -6.5912    1.7881 C.3       1 <0>         0.1363
     21 C17        -0.1381   -5.4922    2.1010 C.3       1 <0>        -0.0558
     22 C18         0.7043   -5.9082    3.2792 C.2       1 <0>        -0.0055
     23 C19         1.8116   -6.6739    3.2439 C.2       1 <0>        -0.0321
     24 N2          2.2627   -6.8093    4.4998 N.2       1 <0>        -0.4943
     25 C20         1.4770   -6.1567    5.3120 C.2       1 <0>         0.2038
     26 N3          0.4945   -5.5756    4.5903 N.pl3     1 <0>        -0.5549
     27 N4         -0.4508   -7.7997    1.3532 N.am      1 <0>        -0.6893
     28 C21         0.0174   -8.6725    2.2672 C.2       1 <0>         0.5115
     29 O2         -0.1448   -8.4575    3.4497 O.2       1 <0>        -0.4927
     30 C22         0.7424   -9.9156    1.8198 C.3       1 <0>         0.0095
     31 C23        -0.2762  -10.9726    1.3883 C.3       1 <0>        -0.0942
     32 C24        -1.2252  -11.2495    2.5257 C.ar      1 <0>        -0.1291
     33 C25        -0.9515  -12.2653    3.4225 C.ar      1 <0>        -0.1350
     34 C26        -1.8220  -12.5193    4.4658 C.ar      1 <0>        -0.1069
     35 C27        -2.9661  -11.7574    4.6126 C.ar      1 <0>        -0.0994
     36 C28        -3.2393  -10.7411    3.7163 C.ar      1 <0>        -0.1030
     37 C29        -2.3666  -10.4842    2.6755 C.ar      1 <0>        -0.0897
     38 N5          1.5496  -10.4381    2.9303 N.4       1 <0>        -0.4960
     39 C30         2.3666  -11.5627    2.4551 C.3       1 <0>        -0.0145
     40 C31         3.3032  -12.0216    3.5745 C.3       1 <0>        -0.1164
     41 C32         2.4764  -12.5831    4.7331 C.3       1 <0>        -0.1726
     42 C33         4.2396  -13.1083    3.0426 C.3       1 <0>        -0.1509
     43 O3         -4.5778   -2.8054    1.2183 O.3       1 <0>        -0.5392
     44 O4         -2.0458   -2.5794   -1.4204 O.3       1 <0>        -0.5503
     45 H3         -0.8507    1.9584    0.0628 H         1 <0>         0.0564
     46 H4         -2.3617    1.7211   -0.8476 H         1 <0>         0.0553
     47 H5         -2.3811    1.6928    0.9321 H         1 <0>         0.0546
     48 H6         -0.9794   -0.3375   -0.8652 H         1 <0>         0.0762
     49 H7         -1.3500   -0.2218    2.1623 H         1 <0>         0.0535
     50 H8         -0.5962   -1.5576    1.2592 H         1 <0>         0.0489
     51 H9          0.1804    0.0437    1.2930 H         1 <0>         0.0561
     52 H10        -3.4331   -0.6251    0.9252 H         1 <0>         0.0804
     53 H11        -3.4887   -0.4611   -0.8463 H         1 <0>         0.0686
     54 H12        -3.2703   -4.7689   -1.1673 H         1 <0>         0.1134
     55 H13        -5.4742   -5.1913    0.8999 H         1 <0>         0.0701
     56 H14        -5.7563   -4.9192   -0.8364 H         1 <0>         0.0747
     57 H15        -4.0644   -7.1851    0.3091 H         1 <0>         0.0692
     58 H16        -5.1265   -6.6171   -2.4956 H         1 <0>         0.0490
     59 H17        -3.4332   -6.4491   -1.9731 H         1 <0>         0.0784
     60 H18        -3.8008   -8.6185   -3.1163 H         1 <0>         0.0549
     61 H19        -3.3685   -8.8624   -1.4070 H         1 <0>         0.0577
     62 H20        -6.2005   -8.8724   -2.5456 H         1 <0>         0.0606
     63 H21        -5.2724  -10.3111   -2.0588 H         1 <0>         0.0566
     64 H22        -6.8316   -9.6084   -0.2634 H         1 <0>         0.0585
     65 H23        -5.1384   -9.4404    0.2591 H         1 <0>         0.0529
     66 H24        -6.4641   -7.4390    0.8798 H         1 <0>         0.0552
     67 H25        -6.8964   -7.1951   -0.8295 H         1 <0>         0.0613
     68 H26        -2.7829   -4.5298    1.7020 H         1 <0>         0.3927
     69 H27        -1.7381   -6.8123    2.6824 H         1 <0>         0.1186
     70 H28         0.5031   -5.3331    1.2340 H         1 <0>         0.1030
     71 H29        -0.6638   -4.5674    2.3387 H         1 <0>         0.0883
     72 H30         2.2582   -7.1035    2.3594 H         1 <0>         0.1522
     73 H31         1.5948   -6.0895    6.3835 H         1 <0>         0.2069
     74 H32        -0.3211   -7.9716    0.4074 H         1 <0>         0.4181
     75 H33         1.3934   -9.6740    0.9796 H         1 <0>         0.1643
     76 H34        -0.8369  -10.6070    0.5280 H         1 <0>         0.1253
     77 H35         0.2453  -11.8909    1.1184 H         1 <0>         0.1107
     78 H36        -0.0577  -12.8606    3.3079 H         1 <0>         0.1206
     79 H37        -1.6085  -13.3133    5.1661 H         1 <0>         0.1310
     80 H38        -3.6465  -11.9563    5.4273 H         1 <0>         0.1305
     81 H39        -4.1333  -10.1460    3.8308 H         1 <0>         0.1274
     82 H40        -2.5782   -9.6878    1.9774 H         1 <0>         0.1214
     83 H41         2.1525   -9.7086    3.2802 H         1 <0>         0.4343
     84 H42         1.7158  -12.3875    2.1649 H         1 <0>         0.1334
     85 H43         2.9564  -11.2454    1.5951 H         1 <0>         0.1379
     86 H44         3.8922  -11.1743    3.9257 H         1 <0>         0.0979
     87 H45         3.1436  -12.9100    5.5306 H         1 <0>         0.0854
     88 H46         1.8093  -11.8089    5.1120 H         1 <0>         0.0523
     89 H47         1.8874  -13.4303    4.3819 H         1 <0>         0.0718
     90 H48         4.8286  -12.7083    2.2173 H         1 <0>         0.0687
     91 H49         4.9069  -13.4352    3.8401 H         1 <0>         0.0790
     92 H50         3.6506  -13.9556    2.6915 H         1 <0>         0.0678
     93 H51        -4.0388   -3.0805    1.9725 H         1 <0>         0.3666
     94 H52        -2.5849   -2.3042   -2.1746 H         1 <0>         0.3789
     95 H53         0.9400  -10.7541    3.6697 H         1 <0>         0.4311
     96 H54        -0.2263   -5.0265    4.9366 H         1 <0>         0.4205
@<TRIPOS>BOND
     1    1    2 1
     2    1   45 1
     3    1   46 1
     4    1   47 1
     5    2    3 1
     6    2    4 1
     7    2   48 1
     8    3   49 1
     9    3   50 1
    10    3   51 1
    11    4    5 1
    12    4   52 1
    13    4   53 1
    14    5    6 1
    15    5    7 1
    16    5   44 1
    17    7    8 1
    18    7    9 1
    19    7   43 1
    20    9   10 1
    21    9   17 1
    22    9   54 1
    23   10   11 1
    24   10   55 1
    25   10   56 1
    26   11   16 1
    27   11   12 1
    28   11   57 1
    29   12   13 1
    30   12   58 1
    31   12   59 1
    32   13   14 1
    33   13   60 1
    34   13   61 1
    35   14   15 1
    36   14   62 1
    37   14   63 1
    38   15   16 1
    39   15   64 1
    40   15   65 1
    41   16   66 1
    42   16   67 1
    43   17   18 am
    44   17   68 1
    45   18   19 2
    46   18   20 1
    47   20   21 1
    48   20   27 1
    49   20   69 1
    50   21   70 1
    51   21   71 1
    52   21   22 1
    53   22   23 2
    54   22   26 1
    55   23   24 1
    56   23   72 1
    57   24   25 2
    58   25   73 1
    59   25   26 1
    60   26   96 1
    61   27   28 am
    62   27   74 1
    63   28   29 2
    64   28   30 1
    65   30   31 1
    66   30   38 1
    67   30   75 1
    68   31   32 1
    69   31   76 1
    70   31   77 1
    71   32   37 ar
    72   32   33 ar
    73   33   34 ar
    74   33   78 1
    75   34   35 ar
    76   34   79 1
    77   35   36 ar
    78   35   80 1
    79   36   37 ar
    80   36   81 1
    81   37   82 1
    82   38   39 1
    83   38   83 1
    84   38   95 1
    85   39   40 1
    86   39   84 1
    87   39   85 1
    88   40   41 1
    89   40   42 1
    90   40   86 1
    91   41   87 1
    92   41   88 1
    93   41   89 1
    94   42   90 1
    95   42   91 1
    96   42   92 1
    97   43   93 1
    98   44   94 1
@<TRIPOS>MOLECULE
CHEMBL73278__1
   96    98     0     0     0
SMALL
USER_CHARGES

@<TRIPOS>ATOM
      1 C1          2.0159   -1.2548    0.0456 C.3       1 <0>        -0.1516
      2 C2          0.9658   -0.9797    1.1238 C.3       1 <0>        -0.0941
      3 C3         -0.3517   -1.6544    0.7365 C.3       1 <0>        -0.1467
      4 C4          1.4508   -1.5389    2.4627 C.3       1 <0>        -0.1476
      5 C5          0.4656   -1.1475    3.5659 C.3       1 <0>         0.0803
      6 H1         -0.5332   -1.4941    3.3008 H         1 <0>         0.0948
      7 C6          0.8954   -1.7914    4.8856 C.3       1 <0>         0.0647
      8 H2          1.8943   -1.4447    5.1507 H         1 <0>         0.1181
      9 C7         -0.0898   -1.3999    5.9888 C.3       1 <0>         0.1181
     10 C8          0.3401   -2.0438    7.3084 C.3       1 <0>        -0.1252
     11 C9         -0.5710   -1.5536    8.4357 C.3       1 <0>        -0.0777
     12 C10        -0.3714   -0.0499    8.6352 C.3       1 <0>        -0.1071
     13 C11        -1.2824    0.4404    9.7624 C.3       1 <0>        -0.1091
     14 C12        -0.9336   -0.2966   11.0570 C.3       1 <0>        -0.1232
     15 C13        -1.1332   -1.8003   10.8575 C.3       1 <0>        -0.1157
     16 C14        -0.2221   -2.2906    9.7303 C.3       1 <0>        -0.1172
     17 N1         -1.4322   -1.8659    5.6325 N.am      1 <0>        -0.7151
     18 C15        -2.5169   -1.2465    6.1388 C.2       1 <0>         0.5109
     19 O1         -2.3817   -0.3035    6.8893 O.2       1 <0>        -0.4905
     20 C16        -3.8979   -1.7258    5.7723 C.3       1 <0>         0.1278
     21 C17        -4.0876   -1.6243    4.2575 C.3       1 <0>        -0.0709
     22 C18        -5.4201   -2.2168    3.8773 C.2       1 <0>         0.0485
     23 C19        -6.6045   -1.5761    3.8926 C.2       1 <0>         0.0417
     24 N2         -7.5475   -2.4769    3.4770 N.pl3     1 <0>        -0.5023
     25 C20        -6.9062   -3.6376    3.2220 C.cat     1 <0>         0.3123
     26 N3         -5.6334   -3.4732    3.4588 N.pl3     1 <0>        -0.4664
     27 N4         -4.8982   -0.8946    6.4465 N.am      1 <0>        -0.7067
     28 C21        -6.1267   -1.3889    6.6973 C.2       1 <0>         0.4955
     29 O2         -6.4041   -2.5217    6.3648 O.2       1 <0>        -0.5471
     30 C22        -7.1558   -0.5338    7.3909 C.3       1 <0>         0.0779
     31 C23        -6.8254   -0.4472    8.8823 C.3       1 <0>        -0.0606
     32 C24        -7.7809    0.5052    9.5540 C.ar      1 <0>        -0.0779
     33 C25        -7.4716    1.8498    9.6382 C.ar      1 <0>        -0.1195
     34 C26        -8.3480    2.7234   10.2543 C.ar      1 <0>        -0.1206
     35 C27        -9.5340    2.2524   10.7857 C.ar      1 <0>        -0.1175
     36 C28        -9.8438    0.9079   10.7007 C.ar      1 <0>        -0.1216
     37 C29        -8.9693    0.0350   10.0809 C.ar      1 <0>        -0.0867
     38 N5         -8.4863   -1.1319    7.2180 N.3       1 <0>        -0.6535
     39 C30        -9.1235   -0.6509    5.9849 C.3       1 <0>         0.0648
     40 C31       -10.5533   -1.1898    5.9059 C.3       1 <0>        -0.0991
     41 C32       -11.2579   -0.5899    4.6875 C.3       1 <0>        -0.1490
     42 C33       -10.5174   -2.7138    5.7751 C.3       1 <0>        -0.1445
     43 O3          0.9076   -3.2129    4.7403 O.3       1 <0>        -0.5380
     44 O4          0.4535    0.2741    3.7113 O.3       1 <0>        -0.5509
     45 H3          2.2351   -2.3221    0.0159 H         1 <0>         0.0547
     46 H4          1.6337   -0.9352   -0.9238 H         1 <0>         0.0564
     47 H5          2.9271   -0.7031    0.2768 H         1 <0>         0.0562
     48 H6          0.8106    0.0954    1.2139 H         1 <0>         0.0769
     49 H7         -0.1965   -2.7296    0.6464 H         1 <0>         0.0532
     50 H8         -1.0998   -1.4584    1.5045 H         1 <0>         0.0471
     51 H9         -0.6972   -1.2560   -0.2174 H         1 <0>         0.0556
     52 H10         1.5144   -2.6253    2.4011 H         1 <0>         0.0802
     53 H11         2.4347   -1.1298    2.6923 H         1 <0>         0.0696
     54 H12        -0.0990   -0.3156    6.0996 H         1 <0>         0.1143
     55 H13         0.2641   -3.1280    7.2254 H         1 <0>         0.0699
     56 H14         1.3713   -1.7677    7.5286 H         1 <0>         0.0751
     57 H15        -1.6106   -1.7507    8.1742 H         1 <0>         0.0690
     58 H16         0.6683    0.1472    8.8966 H         1 <0>         0.0490
     59 H17        -0.6199    0.4752    7.7128 H         1 <0>         0.0767
     60 H18        -1.1403    1.5117    9.9045 H         1 <0>         0.0555
     61 H19        -2.3221    0.2433    9.5010 H         1 <0>         0.0600
     62 H20         0.1061   -0.0995   11.3184 H         1 <0>         0.0599
     63 H21        -1.5826    0.0527   11.8601 H         1 <0>         0.0584
     64 H22        -0.8846   -2.3253   11.7799 H         1 <0>         0.0593
     65 H23        -2.1728   -1.9974   10.5961 H         1 <0>         0.0549
     66 H24        -0.3643   -3.3619    9.5882 H         1 <0>         0.0549
     67 H25         0.8175   -2.0935    9.9917 H         1 <0>         0.0611
     68 H26        -1.5404   -2.6201    5.0322 H         1 <0>         0.3899
     69 H27        -4.0172   -2.7632    6.0847 H         1 <0>         0.1191
     70 H28        -4.0566   -0.5771    3.9568 H         1 <0>         0.1228
     71 H29        -3.2901   -2.1707    3.7540 H         1 <0>         0.1068
     72 H30        -8.4988   -2.3123    3.3832 H         1 <0>         0.4623
     73 H31        -6.7771   -0.5489    4.1783 H         1 <0>         0.2122
     74 H32        -7.3693   -4.5497    2.8755 H         1 <0>         0.2639
     75 H33        -4.6764    0.0115    6.7125 H         1 <0>         0.4202
     76 H34        -7.1481    0.4666    6.9584 H         1 <0>         0.1052
     77 H35        -6.9199   -1.4350    9.3334 H         1 <0>         0.0795
     78 H36        -5.8045   -0.0865    9.0080 H         1 <0>         0.0809
     79 H37        -6.5450    2.2178    9.2229 H         1 <0>         0.1172
     80 H38        -8.1060    3.7739   10.3207 H         1 <0>         0.1208
     81 H39       -10.2184    2.9348   11.2677 H         1 <0>         0.1205
     82 H40       -10.7702    0.5399   11.1163 H         1 <0>         0.1202
     83 H41        -9.2130   -1.0148   10.0111 H         1 <0>         0.1204
     84 H42        -8.4341   -2.1395    7.2288 H         1 <0>         0.3563
     85 H43        -9.1457    0.4389    5.9886 H         1 <0>         0.0790
     86 H44        -8.5555   -0.9998    5.1225 H         1 <0>         0.0084
     87 H45       -11.0955   -0.9155    6.8108 H         1 <0>         0.0905
     88 H46       -10.7157   -0.8642    3.7826 H         1 <0>         0.0435
     89 H47       -12.2765   -0.9738    4.6313 H         1 <0>         0.0647
     90 H48       -11.2835    0.4958    4.7807 H         1 <0>         0.0611
     91 H49        -9.9751   -2.9882    4.8702 H         1 <0>         0.0329
     92 H50       -10.0154   -3.1413    6.6431 H         1 <0>         0.0608
     93 H51       -11.5359   -3.0978    5.7189 H         1 <0>         0.0640
     94 H52         0.0497   -3.5915    4.5041 H         1 <0>         0.3646
     95 H53         1.3114    0.6526    3.9474 H         1 <0>         0.3808
     96 H54        -4.9498   -4.1528    3.3511 H         1 <0>         0.4617
@<TRIPOS>BOND
     1    1    2 1
     2    1   45 1
     3    1   46 1
     4    1   47 1
     5    2    3 1
     6    2    4 1
     7    2   48 1
     8    3   49 1
     9    3   50 1
    10    3   51 1
    11    4    5 1
    12    4   52 1
    13    4   53 1
    14    5    6 1
    15    5    7 1
    16    5   44 1
    17    7    8 1
    18    7    9 1
    19    7   43 1
    20    9   10 1
    21    9   17 1
    22    9   54 1
    23   10   11 1
    24   10   55 1
    25   10   56 1
    26   11   16 1
    27   11   12 1
    28   11   57 1
    29   12   13 1
    30   12   58 1
    31   12   59 1
    32   13   14 1
    33   13   60 1
    34   13   61 1
    35   14   15 1
    36   14   62 1
    37   14   63 1
    38   15   16 1
    39   15   64 1
    40   15   65 1
    41   16   66 1
    42   16   67 1
    43   17   18 am
    44   17   68 1
    45   18   19 2
    46   18   20 1
    47   20   21 1
    48   20   27 1
    49   20   69 1
    50   21   70 1
    51   21   71 1
    52   21   22 1
    53   22   23 2
    54   22   26 1
    55   23   24 1
    56   23   73 1
    57   24   25 1
    58   24   72 1
    59   25   74 1
    60   25   26 2
    61   26   96 1
    62   27   28 am
    63   27   75 1
    64   28   29 2
    65   28   30 1
    66   30   31 1
    67   30   38 1
    68   30   76 1
    69   31   32 1
    70   31   77 1
    71   31   78 1
    72   32   37 ar
    73   32   33 ar
    74   33   34 ar
    75   33   79 1
    76   34   35 ar
    77   34   80 1
    78   35   36 ar
    79   35   81 1
    80   36   37 ar
    81   36   82 1
    82   37   83 1
    83   38   39 1
    84   38   84 1
    85   39   40 1
    86   39   85 1
    87   39   86 1
    88   40   41 1
    89   40   42 1
    90   40   87 1
    91   41   88 1
    92   41   89 1
    93   41   90 1
    94   42   91 1
    95   42   92 1
    96   42   93 1
    97   43   94 1
    98   44   95 1
@<TRIPOS>MOLECULE
CHEMBL73278__2
   96    98     0     0     0
SMALL
USER_CHARGES

@<TRIPOS>ATOM
      1 C1         -0.5005   -1.9870    1.7280 C.3       1 <0>        -0.1507
      2 C2         -0.9727   -1.5990    0.3254 C.3       1 <0>        -0.0934
      3 C3         -0.0972   -2.2952   -0.7184 C.3       1 <0>        -0.1483
      4 C4         -2.4287   -2.0309    0.1398 C.3       1 <0>        -0.1466
      5 C5         -2.9423   -1.5262   -1.2102 C.3       1 <0>         0.0781
      6 H1         -2.2794   -1.8718   -2.0034 H         1 <0>         0.0992
      7 C6         -4.3531   -2.0660   -1.4533 C.3       1 <0>         0.0655
      8 H2         -5.0160   -1.7203   -0.6601 H         1 <0>         0.1156
      9 C7         -4.8667   -1.5613   -2.8033 C.3       1 <0>         0.1187
     10 C8         -6.2775   -2.1010   -3.0464 C.3       1 <0>        -0.1253
     11 C9         -6.8394   -1.4975   -4.3352 C.3       1 <0>        -0.0763
     12 C10        -7.0086    0.0129   -4.1596 C.3       1 <0>        -0.1075
     13 C11        -7.5705    0.6164   -5.4484 C.3       1 <0>        -0.1068
     14 C12        -8.9287   -0.0163   -5.7580 C.3       1 <0>        -0.1232
     15 C13        -8.7595   -1.5268   -5.9335 C.3       1 <0>        -0.1135
     16 C14        -8.1976   -2.1303   -4.6447 C.3       1 <0>        -0.1182
     17 N1         -3.9757   -2.0258   -3.8693 N.am      1 <0>        -0.7125
     18 C15        -3.8979   -1.3422   -5.0283 C.2       1 <0>         0.5133
     19 O1         -4.5656   -0.3425   -5.1886 O.2       1 <0>        -0.5118
     20 C16        -2.9814   -1.8201   -6.1249 C.3       1 <0>         0.1384
     21 C17        -1.5403   -1.8424   -5.6116 C.3       1 <0>        -0.0420
     22 C18        -0.6408   -2.4354   -6.6654 C.2       1 <0>         0.0077
     23 C19         0.4587   -1.8563   -7.1844 C.2       1 <0>        -0.0638
     24 N2          0.9722   -2.7327   -8.1020 N.pl3     1 <0>        -0.5752
     25 C20         0.1680   -3.8175   -8.1118 C.2       1 <0>         0.1910
     26 N3         -0.7917   -3.6347   -7.2465 N.2       1 <0>        -0.4487
     27 N4         -3.0774   -0.9132   -7.2714 N.am      1 <0>        -0.6869
     28 C21        -2.7802   -1.3573   -8.5087 C.2       1 <0>         0.5014
     29 O2         -2.4333   -2.5077   -8.6730 O.2       1 <0>        -0.4797
     30 C22        -2.8789   -0.4243   -9.6881 C.3       1 <0>         0.0082
     31 C23        -4.3409   -0.3055  -10.1234 C.3       1 <0>        -0.0931
     32 C24        -4.8793   -1.6736  -10.4541 C.ar      1 <0>        -0.1280
     33 C25        -4.7613   -2.1709  -11.7385 C.ar      1 <0>        -0.1397
     34 C26        -5.2552   -3.4258  -12.0419 C.ar      1 <0>        -0.1074
     35 C27        -5.8667   -4.1837  -11.0608 C.ar      1 <0>        -0.0990
     36 C28        -5.9839   -3.6868   -9.7762 C.ar      1 <0>        -0.0993
     37 C29        -5.4862   -2.4336   -9.4717 C.ar      1 <0>        -0.0863
     38 N5         -2.0785   -0.9543  -10.8000 N.4       1 <0>        -0.4944
     39 C30        -2.0622    0.0198  -11.8995 C.3       1 <0>        -0.0162
     40 C31        -1.3024   -0.5679  -13.0904 C.3       1 <0>        -0.1167
     41 C32        -1.3917    0.3937  -14.2771 C.3       1 <0>        -0.1517
     42 C33         0.1651   -0.7719  -12.7086 C.3       1 <0>        -0.1699
     43 O3         -4.3221   -3.4946   -1.4594 O.3       1 <0>        -0.5405
     44 O4         -2.9733   -0.0976   -1.2041 O.3       1 <0>        -0.5507
     45 H3          0.5602   -1.7578    1.8306 H         1 <0>         0.0558
     46 H4         -1.0672   -1.4253    2.4706 H         1 <0>         0.0546
     47 H5         -0.6580   -3.0545    1.8820 H         1 <0>         0.0547
     48 H6         -0.8957   -0.5187    0.2020 H         1 <0>         0.0754
     49 H7         -0.1742   -3.3755   -0.5950 H         1 <0>         0.0543
     50 H8         -0.4336   -2.0188   -1.7176 H         1 <0>         0.0505
     51 H9          0.9401   -1.9875   -0.5862 H         1 <0>         0.0550
     52 H10        -2.4915   -3.1187    0.1688 H         1 <0>         0.0809
     53 H11        -3.0373   -1.6104    0.9403 H         1 <0>         0.0676
     54 H12        -4.8904   -0.4715   -2.7986 H         1 <0>         0.1118
     55 H13        -6.2402   -3.1864   -3.1395 H         1 <0>         0.0707
     56 H14        -6.9196   -1.8301   -2.2082 H         1 <0>         0.0732
     57 H15        -6.1516   -1.6929   -5.1578 H         1 <0>         0.0705
     58 H16        -7.6964    0.2083   -3.3369 H         1 <0>         0.0480
     59 H17        -6.0410    0.4637   -3.9390 H         1 <0>         0.0787
     60 H18        -7.6910    1.6925   -5.3233 H         1 <0>         0.0538
     61 H19        -6.8826    0.4210   -6.2711 H         1 <0>         0.0577
     62 H20        -9.6165    0.1790   -4.9353 H         1 <0>         0.0602
     63 H21        -9.3290    0.4136   -6.6761 H         1 <0>         0.0558
     64 H22        -9.7271   -1.9776   -6.1541 H         1 <0>         0.0580
     65 H23        -8.0717   -1.7222   -6.7562 H         1 <0>         0.0530
     66 H24        -8.0771   -3.2063   -4.7698 H         1 <0>         0.0559
     67 H25        -8.8854   -1.9349   -3.8220 H         1 <0>         0.0606
     68 H26        -3.4417   -2.8254   -3.7411 H         1 <0>         0.3955
     69 H27        -3.2737   -2.8246   -6.4308 H         1 <0>         0.1285
     70 H28        -1.2179   -0.8252   -5.3892 H         1 <0>         0.0865
     71 H29        -1.4864   -2.4468   -4.7060 H         1 <0>         0.0905
     72 H30         1.7655   -2.5994   -8.6440 H         1 <0>         0.4191
     73 H31         0.8584   -0.8867   -6.9265 H         1 <0>         0.1702
     74 H32         0.2995   -4.6931   -8.7303 H         1 <0>         0.2028
     75 H33        -3.3548    0.0070   -7.1400 H         1 <0>         0.4142
     76 H34        -2.5027    0.5590   -9.4060 H         1 <0>         0.1608
     77 H35        -4.9268    0.1296   -9.3138 H         1 <0>         0.1252
     78 H36        -4.4070    0.3336  -11.0039 H         1 <0>         0.1087
     79 H37        -4.2836   -1.5788  -12.5050 H         1 <0>         0.1177
     80 H38        -5.1637   -3.8141  -13.0455 H         1 <0>         0.1300
     81 H39        -6.2532   -5.1639  -11.2980 H         1 <0>         0.1306
     82 H40        -6.4619   -4.2788   -9.0097 H         1 <0>         0.1291
     83 H41        -5.5744   -2.0469   -8.4672 H         1 <0>         0.1228
     84 H42        -1.1346   -1.1218  -10.4851 H         1 <0>         0.4261
     85 H43        -3.0854    0.2479  -12.1981 H         1 <0>         0.1365
     86 H44        -1.5682    0.9333  -11.5683 H         1 <0>         0.1369
     87 H45        -1.7429   -1.5262  -13.3653 H         1 <0>         0.0947
     88 H46        -0.9512    1.3520  -14.0022 H         1 <0>         0.0692
     89 H47        -0.8504   -0.0250  -15.1255 H         1 <0>         0.0793
     90 H48        -2.4372    0.5390  -14.5491 H         1 <0>         0.0690
     91 H49         0.2288   -1.4569  -11.8631 H         1 <0>         0.0488
     92 H50         0.7064   -1.1906  -13.5570 H         1 <0>         0.0850
     93 H51         0.6057    0.1865  -12.4337 H         1 <0>         0.0732
     94 H52        -3.7504   -3.8727   -2.1416 H         1 <0>         0.3690
     95 H53        -3.5449    0.2805   -0.5219 H         1 <0>         0.3777
     96 H54        -2.4837   -1.8198  -11.1235 H         1 <0>         0.4319
@<TRIPOS>BOND
     1    1    2 1
     2    1   45 1
     3    1   46 1
     4    1   47 1
     5    2    3 1
     6    2    4 1
     7    2   48 1
     8    3   49 1
     9    3   50 1
    10    3   51 1
    11    4    5 1
    12    4   52 1
    13    4   53 1
    14    5    6 1
    15    5    7 1
    16    5   44 1
    17    7    8 1
    18    7    9 1
    19    7   43 1
    20    9   10 1
    21    9   17 1
    22    9   54 1
    23   10   11 1
    24   10   55 1
    25   10   56 1
    26   11   16 1
    27   11   12 1
    28   11   57 1
    29   12   13 1
    30   12   58 1
    31   12   59 1
    32   13   14 1
    33   13   60 1
    34   13   61 1
    35   14   15 1
    36   14   62 1
    37   14   63 1
    38   15   16 1
    39   15   64 1
    40   15   65 1
    41   16   66 1
    42   16   67 1
    43   17   18 am
    44   17   68 1
    45   18   19 2
    46   18   20 1
    47   20   21 1
    48   20   27 1
    49   20   69 1
    50   21   70 1
    51   21   71 1
    52   21   22 1
    53   22   23 2
    54   22   26 1
    55   23   24 1
    56   23   73 1
    57   24   25 1
    58   24   72 1
    59   25   74 1
    60   25   26 2
    61   27   28 am
    62   27   75 1
    63   28   29 2
    64   28   30 1
    65   30   31 1
    66   30   38 1
    67   30   76 1
    68   31   32 1
    69   31   77 1
    70   31   78 1
    71   32   37 ar
    72   32   33 ar
    73   33   34 ar
    74   33   79 1
    75   34   35 ar
    76   34   80 1
    77   35   36 ar
    78   35   81 1
    79   36   37 ar
    80   36   82 1
    81   37   83 1
    82   38   39 1
    83   38   84 1
    84   38   96 1
    85   39   40 1
    86   39   85 1
    87   39   86 1
    88   40   41 1
    89   40   42 1
    90   40   87 1
    91   41   88 1
    92   41   89 1
    93   41   90 1
    94   42   91 1
    95   42   92 1
    96   42   93 1
    97   43   94 1
    98   44   95 1
@<TRIPOS>MOLECULE
CHEMBL73278__3
   97    99     0     0     0
SMALL
USER_CHARGES

@<TRIPOS>ATOM
      1 C1         -1.8603    1.3648   -0.0106 C.3       1 <0>        -0.1531
      2 C2         -1.5988   -0.1427   -0.0257 C.3       1 <0>        -0.0936
      3 C3         -0.8284   -0.5393    1.2352 C.3       1 <0>        -0.1458
      4 C4         -2.9326   -0.8913   -0.0652 C.3       1 <0>        -0.1494
      5 C5         -2.6710   -2.3922   -0.2059 C.3       1 <0>         0.0814
      6 H1         -2.0107   -2.7227    0.5958 H         1 <0>         0.0928
      7 C6         -3.9968   -3.1511   -0.1202 C.3       1 <0>         0.0629
      8 H2         -4.6571   -2.8206   -0.9219 H         1 <0>         0.1212
      9 C7         -3.7352   -4.6520   -0.2610 C.3       1 <0>         0.1181
     10 C8         -5.0609   -5.4110   -0.1752 C.3       1 <0>        -0.1278
     11 C9         -4.8155   -6.8978   -0.4400 C.3       1 <0>        -0.0738
     12 C10        -4.3334   -7.0866   -1.8798 C.3       1 <0>        -0.1100
     13 C11        -4.0879   -8.5734   -2.1446 C.3       1 <0>        -0.1059
     14 C12        -5.3896   -9.3501   -1.9366 C.3       1 <0>        -0.1258
     15 C13        -5.8717   -9.1613   -0.4969 C.3       1 <0>        -0.1128
     16 C14        -6.1171   -7.6745   -0.2321 C.3       1 <0>        -0.1199
     17 N1         -2.8476   -5.0962    0.8166 N.am      1 <0>        -0.7085
     18 C15        -2.0820   -6.1929    0.6501 C.2       1 <0>         0.5089
     19 O1         -2.1279   -6.8119   -0.3918 O.2       1 <0>        -0.4900
     20 C16        -1.1690   -6.6498    1.7585 C.3       1 <0>         0.1284
     21 C17        -0.1635   -5.5424    2.0802 C.3       1 <0>        -0.0776
     22 C18         0.6690   -5.9494    3.2686 C.2       1 <0>         0.0601
     23 C19         1.7811   -6.7082    3.2332 C.2       1 <0>         0.0094
     24 N2          2.2173   -6.8319    4.5247 N.pl3     1 <0>        -0.5121
     25 C20         1.3561   -6.1440    5.3049 C.cat     1 <0>         0.3296
     26 N3          0.4355   -5.6147    4.5462 N.pl3     1 <0>        -0.4662
     27 N4         -0.4503   -7.8538    1.3341 N.am      1 <0>        -0.6841
     28 C21         0.0143   -8.7211    2.2552 C.2       1 <0>         0.5121
     29 O2         -0.1625   -8.5048    3.4354 O.2       1 <0>        -0.5238
     30 C22         0.7536   -9.9596    1.8186 C.3       1 <0>         0.0065
     31 C23        -0.2520  -11.0252    1.3783 C.3       1 <0>        -0.0951
     32 C24        -1.2064  -11.3128    2.5085 C.ar      1 <0>        -0.1360
     33 C25        -0.9212  -12.3163    3.4155 C.ar      1 <0>        -0.1361
     34 C26        -1.7966  -12.5802    4.4523 C.ar      1 <0>        -0.1043
     35 C27        -2.9570  -11.8402    4.5824 C.ar      1 <0>        -0.0954
     36 C28        -3.2418  -10.8362    3.6759 C.ar      1 <0>        -0.1016
     37 C29        -2.3642  -10.5695    2.6416 C.ar      1 <0>        -0.0926
     38 N5          1.5525  -10.4735    2.9392 N.4       1 <0>        -0.4966
     39 C30         2.3827  -11.5932    2.4757 C.3       1 <0>        -0.0190
     40 C31         3.3074  -12.0453    3.6077 C.3       1 <0>        -0.1170
     41 C32         4.0824  -13.2889    3.1674 C.3       1 <0>        -0.1551
     42 C33         4.2918  -10.9226    3.9413 C.3       1 <0>        -0.1687
     43 O3         -4.6135   -2.8914    1.1424 O.3       1 <0>        -0.5349
     44 O4         -2.0543   -2.6518   -1.4686 O.3       1 <0>        -0.5532
     45 H3         -0.9101    1.8981    0.0174 H         1 <0>         0.0575
     46 H4         -2.4092    1.6473   -0.9090 H         1 <0>         0.0578
     47 H5         -2.4480    1.6228    0.8704 H         1 <0>         0.0555
     48 H6         -1.0112   -0.4007   -0.9068 H         1 <0>         0.0767
     49 H7         -0.6421   -1.6132    1.2245 H         1 <0>         0.0438
     50 H8          0.1218   -0.0060    1.2633 H         1 <0>         0.0565
     51 H9         -1.4161   -0.2813    2.1163 H         1 <0>         0.0539
     52 H10        -3.4822   -0.7032    0.8571 H         1 <0>         0.0812
     53 H11        -3.5195   -0.5434   -0.9153 H         1 <0>         0.0716
     54 H12        -3.2648   -4.8501   -1.2241 H         1 <0>         0.1166
     55 H13        -5.4882   -5.2848    0.8196 H         1 <0>         0.0716
     56 H14        -5.7530   -5.0186   -0.9203 H         1 <0>         0.0791
     57 H15        -4.0568   -7.2691    0.2488 H         1 <0>         0.0645
     58 H16        -5.0921   -6.7152   -2.5686 H         1 <0>         0.0527
     59 H17        -3.4060   -6.5332   -2.0279 H         1 <0>         0.0765
     60 H18        -3.7444   -8.7079   -3.1702 H         1 <0>         0.0567
     61 H19        -3.3292   -8.9447   -1.4557 H         1 <0>         0.0542
     62 H20        -6.1483   -8.9788   -2.6255 H         1 <0>         0.0633
     63 H21        -5.2147  -10.4093   -2.1252 H         1 <0>         0.0582
     64 H22        -6.7990   -9.7147   -0.3487 H         1 <0>         0.0608
     65 H23        -5.1130   -9.5326    0.1920 H         1 <0>         0.0501
     66 H24        -6.4606   -7.5400    0.7936 H         1 <0>         0.0557
     67 H25        -6.8759   -7.3032   -0.9209 H         1 <0>         0.0643
     68 H26        -2.8110   -4.6011    1.6499 H         1 <0>         0.3916
     69 H27        -1.7597   -6.8734    2.6468 H         1 <0>         0.1284
     70 H28         0.4860   -5.3803    1.2199 H         1 <0>         0.1304
     71 H29        -0.6988   -4.6211    2.3100 H         1 <0>         0.1172
     72 H30         2.9991   -7.3221    4.8237 H         1 <0>         0.4644
     73 H31         2.2402   -7.1369    2.3547 H         1 <0>         0.2136
     74 H32         1.4208   -6.0448    6.3784 H         1 <0>         0.2692
     75 H33        -0.3089   -8.0268    0.3902 H         1 <0>         0.4279
     76 H34         1.4120   -9.7148    0.9851 H         1 <0>         0.1710
     77 H35        -0.8101  -10.6634    0.5147 H         1 <0>         0.1295
     78 H36         0.2798  -11.9382    1.1106 H         1 <0>         0.1169
     79 H37        -0.0146  -12.8944    3.3139 H         1 <0>         0.1211
     80 H38        -1.5742  -13.3646    5.1605 H         1 <0>         0.1340
     81 H39        -3.6413  -12.0468    5.3920 H         1 <0>         0.1338
     82 H40        -4.1485  -10.2583    3.7773 H         1 <0>         0.1298
     83 H41        -2.5849   -9.7825    1.9356 H         1 <0>         0.1207
     84 H42         2.1463   -9.7388    3.2937 H         1 <0>         0.4148
     85 H43         1.7410  -12.4224    2.1777 H         1 <0>         0.1418
     86 H44         2.9818  -11.2729    1.6232 H         1 <0>         0.1421
     87 H45         2.7128  -12.2813    4.4902 H         1 <0>         0.0962
     88 H46         4.6770  -13.0529    2.2848 H         1 <0>         0.0719
     89 H47         4.7411  -13.6110    3.9738 H         1 <0>         0.0830
     90 H48         3.3811  -14.0888    2.9297 H         1 <0>         0.0722
     91 H49         4.8864  -10.6865    3.0588 H         1 <0>         0.0776
     92 H50         3.7397  -10.0366    4.2550 H         1 <0>         0.0370
     93 H51         4.9505  -11.2446    4.7478 H         1 <0>         0.0907
     94 H52        -4.0808   -3.1608    1.9032 H         1 <0>         0.3627
     95 H53        -2.5870   -2.3824   -2.2293 H         1 <0>         0.3836
     96 H54         0.9372  -10.7921    3.6727 H         1 <0>         0.4349
     97 H55        -0.3022   -5.0673    4.8575 H         1 <0>         0.4671
@<TRIPOS>BOND
     1    1    2 1
     2    1   45 1
     3    1   46 1
     4    1   47 1
     5    2    3 1
     6    2    4 1
     7    2   48 1
     8    3   49 1
     9    3   50 1
    10    3   51 1
    11    4    5 1
    12    4   52 1
    13    4   53 1
    14    5    6 1
    15    5    7 1
    16    5   44 1
    17    7    8 1
    18    7    9 1
    19    7   43 1
    20    9   10 1
    21    9   17 1
    22    9   54 1
    23   10   11 1
    24   10   55 1
    25   10   56 1
    26   11   16 1
    27   11   12 1
    28   11   57 1
    29   12   13 1
    30   12   58 1
    31   12   59 1
    32   13   14 1
    33   13   60 1
    34   13   61 1
    35   14   15 1
    36   14   62 1
    37   14   63 1
    38   15   16 1
    39   15   64 1
    40   15   65 1
    41   16   66 1
    42   16   67 1
    43   17   18 am
    44   17   68 1
    45   18   19 2
    46   18   20 1
    47   20   21 1
    48   20   27 1
    49   20   69 1
    50   21   70 1
    51   21   71 1
    52   21   22 1
    53   22   23 2
    54   22   26 1
    55   23   24 1
    56   23   73 1
    57   24   25 1
    58   24   72 1
    59   25   74 1
    60   25   26 2
    61   26   97 1
    62   27   28 am
    63   27   75 1
    64   28   29 2
    65   28   30 1
    66   30   31 1
    67   30   38 1
    68   30   76 1
    69   31   32 1
    70   31   77 1
    71   31   78 1
    72   32   37 ar
    73   32   33 ar
    74   33   34 ar
    75   33   79 1
    76   34   35 ar
    77   34   80 1
    78   35   36 ar
    79   35   81 1
    80   36   37 ar
    81   36   82 1
    82   37   83 1
    83   38   39 1
    84   38   84 1
    85   38   96 1
    86   39   40 1
    87   39   85 1
    88   39   86 1
    89   40   41 1
    90   40   42 1
    91   40   87 1
    92   41   88 1
    93   41   89 1
    94   41   90 1
    95   42   91 1
    96   42   92 1
    97   42   93 1
    98   43   94 1
    99   44   95 1
@<TRIPOS>MOLECULE
CHEMBL73278__4
   96    98     0     0     0
SMALL
USER_CHARGES

@<TRIPOS>ATOM
      1 C1         -0.0187    1.5258    0.0104 C.3       1 <0>        -0.1508
      2 C2          0.0021   -0.0041    0.0020 C.3       1 <0>        -0.0937
      3 C3          0.7421   -0.5109    1.2415 C.3       1 <0>        -0.1480
      4 C4         -1.4333   -0.5336    0.0129 C.3       1 <0>        -0.1467
      5 C5         -1.4157   -2.0577   -0.1212 C.3       1 <0>         0.0784
      6 H1         -0.7891   -2.4841    0.6622 H         1 <0>         0.0975
      7 C6         -2.8406   -2.5981    0.0146 C.3       1 <0>         0.0651
      8 H2         -3.4671   -2.1717   -0.7688 H         1 <0>         0.1174
      9 C7         -2.8229   -4.1221   -0.1195 C.3       1 <0>         0.1181
     10 C8         -4.2478   -4.6626    0.0163 C.3       1 <0>        -0.1253
     11 C9         -4.2480   -6.1707   -0.2413 C.3       1 <0>        -0.0768
     12 C10        -3.8496   -6.4400   -1.6938 C.3       1 <0>        -0.1083
     13 C11        -3.8498   -7.9482   -1.9515 C.3       1 <0>        -0.1074
     14 C12        -5.2497   -8.5094   -1.6941 C.3       1 <0>        -0.1237
     15 C13        -5.6480   -8.2401   -0.2416 C.3       1 <0>        -0.1138
     16 C14        -5.6479   -6.7319    0.0160 C.3       1 <0>        -0.1185
     17 N1         -1.9808   -4.6953    0.9334 N.am      1 <0>        -0.7124
     18 C15        -1.4030   -5.8995    0.7534 C.2       1 <0>         0.5132
     19 O1         -1.5802   -6.5087   -0.2802 O.2       1 <0>        -0.5044
     20 C16        -0.5368   -6.4891    1.8365 C.3       1 <0>         0.1352
     21 C17         0.6403   -5.5522    2.1147 C.3       1 <0>        -0.0549
     22 C18         1.4376   -6.0794    3.2798 C.2       1 <0>        -0.0150
     23 C19         2.4169   -7.0025    3.2303 C.2       1 <0>        -0.0219
     24 N2          2.8710   -7.1930    4.4779 N.2       1 <0>        -0.4887
     25 C20         2.2103   -6.4231    5.2986 C.2       1 <0>         0.2005
     26 N3          1.3096   -5.7077    4.5909 N.pl3     1 <0>        -0.5565
     27 N4         -0.0307   -7.7932    1.4014 N.am      1 <0>        -0.6858
     28 C21         0.3222   -8.7183    2.3157 C.2       1 <0>         0.5127
     29 O2          0.2209   -8.4712    3.4987 O.2       1 <0>        -0.4995
     30 C22         0.8428  -10.0598    1.8681 C.3       1 <0>         0.0129
     31 C23         2.3183   -9.9320    1.4839 C.3       1 <0>        -0.0960
     32 C24         2.8061  -11.2420    0.9210 C.ar      1 <0>        -0.1263
     33 C25         3.3415  -12.1993    1.7623 C.ar      1 <0>        -0.1381
     34 C26         3.7889  -13.4010    1.2460 C.ar      1 <0>        -0.1060
     35 C27         3.7007  -13.6455   -0.1117 C.ar      1 <0>        -0.1016
     36 C28         3.1646  -12.6886   -0.9530 C.ar      1 <0>        -0.1052
     37 C29         2.7131  -11.4886   -0.4360 C.ar      1 <0>        -0.1025
     38 N5          0.7042  -11.0291    2.9631 N.4       1 <0>        -0.4940
     39 C30        -0.7205  -11.2416    3.2515 C.3       1 <0>        -0.0138
     40 C31        -0.8649  -12.2512    4.3920 C.3       1 <0>        -0.1139
     41 C32        -0.2763  -11.6596    5.6744 C.3       1 <0>        -0.1665
     42 C33        -2.3462  -12.5669    4.6092 C.3       1 <0>        -0.1505
     43 O3         -3.3665   -2.2385    1.2937 O.3       1 <0>        -0.5392
     44 O4         -0.8897   -2.4172   -1.4003 O.3       1 <0>        -0.5502
     45 H3          1.0039    1.9031    0.0027 H         1 <0>         0.0565
     46 H4         -0.5459    1.8868   -0.8726 H         1 <0>         0.0552
     47 H5         -0.5289    1.8773    0.9072 H         1 <0>         0.0546
     48 H6          0.5123   -0.3556   -0.8948 H         1 <0>         0.0762
     49 H7          0.2319   -0.1594    2.1383 H         1 <0>         0.0535
     50 H8          0.7568   -1.6008    1.2356 H         1 <0>         0.0490
     51 H9          1.7647   -0.1336    1.2338 H         1 <0>         0.0562
     52 H10        -1.9156   -0.2570    0.9504 H         1 <0>         0.0805
     53 H11        -1.9862   -0.1019   -0.8214 H         1 <0>         0.0685
     54 H12        -2.4217   -4.3964   -1.0952 H         1 <0>         0.1135
     55 H13        -4.6166   -4.4659    1.0230 H         1 <0>         0.0703
     56 H14        -4.8941   -4.1698   -0.7101 H         1 <0>         0.0750
     57 H15        -3.5345   -6.6535    0.4265 H         1 <0>         0.0689
     58 H16        -4.5631   -5.9573   -2.3617 H         1 <0>         0.0494
     59 H17        -2.8523   -6.0402   -1.8772 H         1 <0>         0.0786
     60 H18        -3.5660   -8.1400   -2.9863 H         1 <0>         0.0552
     61 H19        -3.1364   -8.4309   -1.2836 H         1 <0>         0.0572
     62 H20        -5.9631   -8.0266   -2.3620 H         1 <0>         0.0611
     63 H21        -5.2498   -9.5838   -1.8777 H         1 <0>         0.0565
     64 H22        -6.6453   -8.6399   -0.0583 H         1 <0>         0.0590
     65 H23        -4.9346   -8.7229    0.4262 H         1 <0>         0.0521
     66 H24        -5.9316   -6.5401    1.0508 H         1 <0>         0.0556
     67 H25        -6.3613   -6.2492   -0.6519 H         1 <0>         0.0618
     68 H26        -1.8392   -4.2080    1.7601 H         1 <0>         0.3931
     69 H27        -1.1255   -6.6127    2.7456 H         1 <0>         0.1191
     70 H28         1.2783   -5.4985    1.2325 H         1 <0>         0.1026
     71 H29         0.2644   -4.5570    2.3523 H         1 <0>         0.0884
     72 H30         2.7740   -7.5019    2.3418 H         1 <0>         0.1542
     73 H31         2.3611   -6.3650    6.3665 H         1 <0>         0.2061
     74 H32         0.0503   -7.9908    0.4552 H         1 <0>         0.4192
     75 H33         0.2711  -10.4020    1.0054 H         1 <0>         0.1611
     76 H34         2.4320   -9.1494    0.7338 H         1 <0>         0.1240
     77 H35         2.9029   -9.6760    2.3676 H         1 <0>         0.1125
     78 H36         3.4104  -12.0083    2.8231 H         1 <0>         0.1230
     79 H37         4.2078  -14.1486    1.9032 H         1 <0>         0.1327
     80 H38         4.0510  -14.5841   -0.5153 H         1 <0>         0.1325
     81 H39         3.0959  -12.8795   -2.0138 H         1 <0>         0.1332
     82 H40         2.2908  -10.7424   -1.0928 H         1 <0>         0.1308
     83 H41         1.1269  -11.9046    2.6930 H         1 <0>         0.4303
     84 H42        -1.1771  -10.2959    3.5434 H         1 <0>         0.1361
     85 H43        -1.2181  -11.6258    2.3610 H         1 <0>         0.1308
     86 H44        -0.3319  -13.1670    4.1364 H         1 <0>         0.0932
     87 H45        -0.3792  -12.3788    6.4869 H         1 <0>         0.0820
     88 H46         0.7790  -11.4347    5.5197 H         1 <0>         0.0515
     89 H47        -0.8093  -10.7438    5.9301 H         1 <0>         0.0735
     90 H48        -2.7656  -12.9884    3.6956 H         1 <0>         0.0671
     91 H49        -2.4491  -13.2861    5.4217 H         1 <0>         0.0787
     92 H50        -2.8792  -11.6511    4.8648 H         1 <0>         0.0670
     93 H51        -2.8578   -2.5847    2.0396 H         1 <0>         0.3667
     94 H52        -1.3985   -2.0711   -2.1462 H         1 <0>         0.3788
     95 H53         1.1647  -10.6735    3.7874 H         1 <0>         0.4334
     96 H54         0.6871   -5.0538    4.9457 H         1 <0>         0.4192
@<TRIPOS>BOND
     1    1    2 1
     2    1   45 1
     3    1   46 1
     4    1   47 1
     5    2    3 1
     6    2    4 1
     7    2   48 1
     8    3   49 1
     9    3   50 1
    10    3   51 1
    11    4    5 1
    12    4   52 1
    13    4   53 1
    14    5    6 1
    15    5    7 1
    16    5   44 1
    17    7    8 1
    18    7    9 1
    19    7   43 1
    20    9   10 1
    21    9   17 1
    22    9   54 1
    23   10   11 1
    24   10   55 1
    25   10   56 1
    26   11   16 1
    27   11   12 1
    28   11   57 1
    29   12   13 1
    30   12   58 1
    31   12   59 1
    32   13   14 1
    33   13   60 1
    34   13   61 1
    35   14   15 1
    36   14   62 1
    37   14   63 1
    38   15   16 1
    39   15   64 1
    40   15   65 1
    41   16   66 1
    42   16   67 1
    43   17   18 am
    44   17   68 1
    45   18   19 2
    46   18   20 1
    47   20   21 1
    48   20   27 1
    49   20   69 1
    50   21   70 1
    51   21   71 1
    52   21   22 1
    53   22   23 2
    54   22   26 1
    55   23   24 1
    56   23   72 1
    57   24   25 2
    58   25   73 1
    59   25   26 1
    60   26   96 1
    61   27   28 am
    62   27   74 1
    63   28   29 2
    64   28   30 1
    65   30   31 1
    66   30   38 1
    67   30   75 1
    68   31   32 1
    69   31   76 1
    70   31   77 1
    71   32   37 ar
    72   32   33 ar
    73   33   34 ar
    74   33   78 1
    75   34   35 ar
    76   34   79 1
    77   35   36 ar
    78   35   80 1
    79   36   37 ar
    80   36   81 1
    81   37   82 1
    82   38   39 1
    83   38   83 1
    84   38   95 1
    85   39   40 1
    86   39   84 1
    87   39   85 1
    88   40   41 1
    89   40   42 1
    90   40   86 1
    91   41   87 1
    92   41   88 1
    93   41   89 1
    94   42   90 1
    95   42   91 1
    96   42   92 1
    97   43   93 1
    98   44   94 1
@<TRIPOS>MOLECULE
CHEMBL73278__5
   96    98     0     0     0
SMALL
USER_CHARGES

@<TRIPOS>ATOM
      1 C1          2.0232    0.0486    0.0775 C.3       1 <0>        -0.1516
      2 C2          0.9497    0.1635    1.1616 C.3       1 <0>        -0.0941
      3 C3         -0.2884   -0.6302    0.7395 C.3       1 <0>        -0.1469
      4 C4          1.4916   -0.3985    2.4774 C.3       1 <0>        -0.1475
      5 C5          0.4712   -0.1604    3.5923 C.3       1 <0>         0.0801
      6 H1         -0.4863   -0.5965    3.3077 H         1 <0>         0.0954
      7 C6          0.9655   -0.8142    4.8843 C.3       1 <0>         0.0648
      8 H2          1.9230   -0.3781    5.1689 H         1 <0>         0.1178
      9 C7         -0.0549   -0.5761    5.9992 C.3       1 <0>         0.1181
     10 C8          0.4394   -1.2299    7.2911 C.3       1 <0>        -0.1250
     11 C9         -0.5175   -0.8870    8.4347 C.3       1 <0>        -0.0780
     12 C10        -0.4748    0.6190    8.7012 C.3       1 <0>        -0.1068
     13 C11        -1.4317    0.9618    9.8447 C.3       1 <0>        -0.1093
     14 C12        -1.0083    0.2083   11.1072 C.3       1 <0>        -0.1231
     15 C13        -1.0509   -1.2977   10.8407 C.3       1 <0>        -0.1157
     16 C14        -0.0941   -1.6406    9.6972 C.3       1 <0>        -0.1171
     17 N1         -1.3419   -1.1623    5.6166 N.am      1 <0>        -0.7155
     18 C15        -2.4849   -0.6816    6.1447 C.2       1 <0>         0.5111
     19 O1         -2.4480    0.2362    6.9367 O.2       1 <0>        -0.4921
     20 C16        -3.8088   -1.2845    5.7512 C.3       1 <0>         0.1312
     21 C17        -4.0081   -1.1362    4.2415 C.3       1 <0>        -0.0709
     22 C18        -5.2720   -1.8461    3.8296 C.2       1 <0>         0.0441
     23 C19        -6.5164   -1.3326    3.8677 C.2       1 <0>         0.0435
     24 N2         -7.3611   -2.3070    3.4086 N.pl3     1 <0>        -0.4983
     25 C20        -6.6029   -3.3826    3.1055 C.cat     1 <0>         0.3129
     26 N3         -5.3540   -3.0980    3.3552 N.pl3     1 <0>        -0.4681
     27 N4         -4.8898   -0.5921    6.4569 N.am      1 <0>        -0.7160
     28 C21        -6.0605   -1.2215    6.6801 C.2       1 <0>         0.5256
     29 O2         -6.2190   -2.3611    6.2967 O.2       1 <0>        -0.5193
     30 C22        -7.1726   -0.5091    7.4060 C.3       1 <0>         0.0739
     31 C23        -7.9422    0.3726    6.4206 C.3       1 <0>        -0.0749
     32 C24        -8.9745    1.1776    7.1671 C.ar      1 <0>        -0.1028
     33 C25       -10.2457    0.6677    7.3543 C.ar      1 <0>        -0.1203
     34 C26       -11.1926    1.4061    8.0392 C.ar      1 <0>        -0.1125
     35 C27       -10.8683    2.6542    8.5371 C.ar      1 <0>        -0.1116
     36 C28        -9.5968    3.1637    8.3507 C.ar      1 <0>        -0.1121
     37 C29        -8.6486    2.4234    7.6696 C.ar      1 <0>        -0.1119
     38 N5         -8.0856   -1.4981    7.9944 N.3       1 <0>        -0.6667
     39 C30        -7.5824   -1.9738    9.2900 C.3       1 <0>         0.0643
     40 C31        -8.5143   -3.0598    9.8315 C.3       1 <0>        -0.0903
     41 C32        -7.9252   -3.6425   11.1177 C.3       1 <0>        -0.1496
     42 C33        -9.8868   -2.4524   10.1286 C.3       1 <0>        -0.1513
     43 O3          1.1249   -2.2190    4.6765 O.3       1 <0>        -0.5383
     44 O4          0.3118    1.2444    3.8001 O.3       1 <0>        -0.5508
     45 H3          2.3508   -0.9881   -0.0011 H         1 <0>         0.0547
     46 H4          1.6108    0.3726   -0.8780 H         1 <0>         0.0563
     47 H5          2.8728    0.6793    0.3391 H         1 <0>         0.0560
     48 H6          0.6810    1.2111    1.2972 H         1 <0>         0.0768
     49 H7         -0.0196   -1.6778    0.6039 H         1 <0>         0.0533
     50 H8         -1.0531   -0.5483    1.5118 H         1 <0>         0.0475
     51 H9         -0.6744   -0.2298   -0.1979 H         1 <0>         0.0556
     52 H10         1.6691   -1.4686    2.3698 H         1 <0>         0.0803
     53 H11         2.4271    0.1016    2.7282 H         1 <0>         0.0693
     54 H12        -0.1765    0.4954    6.1577 H         1 <0>         0.1140
     55 H13         0.4762   -2.3114    7.1600 H         1 <0>         0.0700
     56 H14         1.4364   -0.8585    7.5279 H         1 <0>         0.0748
     57 H15        -1.5311   -1.1789    8.1601 H         1 <0>         0.0692
     58 H16         0.5389    0.9108    8.9757 H         1 <0>         0.0491
     59 H17        -0.7764    1.1558    7.8017 H         1 <0>         0.0770
     60 H18        -1.4013    2.0347   10.0346 H         1 <0>         0.0553
     61 H19        -2.4453    0.6700    9.5702 H         1 <0>         0.0593
     62 H20         0.0054    0.5002   11.3818 H         1 <0>         0.0602
     63 H21        -1.6900    0.4526   11.9219 H         1 <0>         0.0576
     64 H22        -0.7493   -1.8345   11.7402 H         1 <0>         0.0593
     65 H23        -2.0646   -1.5895   10.5662 H         1 <0>         0.0544
     66 H24        -0.1245   -2.7135    9.5073 H         1 <0>         0.0552
     67 H25         0.9196   -1.3487    9.9717 H         1 <0>         0.0612
     68 H26        -1.3714   -1.8963    4.9832 H         1 <0>         0.3901
     69 H27        -3.8199   -2.3416    6.0170 H         1 <0>         0.1183
     70 H28        -4.0858   -0.0791    3.9874 H         1 <0>         0.1223
     71 H29        -3.1583   -1.5742    3.7180 H         1 <0>         0.1057
     72 H30        -8.3243   -2.2377    3.3177 H         1 <0>         0.4652
     73 H31        -6.7945   -0.3426    4.1976 H         1 <0>         0.2119
     74 H32        -6.9690   -4.3215    2.7171 H         1 <0>         0.2634
     75 H33        -4.7630    0.3194    6.7635 H         1 <0>         0.4171
     76 H34        -6.7511    0.1118    8.1966 H         1 <0>         0.0735
     77 H35        -7.2487    1.0473    5.9185 H         1 <0>         0.0849
     78 H36        -8.4373   -0.2562    5.6805 H         1 <0>         0.0804
     79 H37       -10.4991   -0.3074    6.9653 H         1 <0>         0.1232
     80 H38       -12.1860    1.0080    8.1848 H         1 <0>         0.1267
     81 H39       -11.6083    3.2314    9.0715 H         1 <0>         0.1267
     82 H40        -9.3435    4.1389    8.7395 H         1 <0>         0.1269
     83 H41        -7.6542    2.8199    7.5272 H         1 <0>         0.1233
     84 H42        -9.0173   -1.1215    8.0846 H         1 <0>         0.3546
     85 H43        -6.5810   -2.3850    9.1621 H         1 <0>         0.0687
     86 H44        -7.5465   -1.1420    9.9934 H         1 <0>         0.0341
     87 H45        -8.6201   -3.8510    9.0893 H         1 <0>         0.0784
     88 H46        -7.8194   -2.8512   11.8599 H         1 <0>         0.0553
     89 H47        -8.5891   -4.4161   11.5035 H         1 <0>         0.0610
     90 H48        -6.9474   -4.0752   10.9060 H         1 <0>         0.0543
     91 H49        -9.7810   -1.6611   10.8708 H         1 <0>         0.0538
     92 H50       -10.3064   -2.0372    9.2123 H         1 <0>         0.0523
     93 H51       -10.5507   -3.2260   10.5144 H         1 <0>         0.0603
     94 H52         0.3108   -2.6735    4.4200 H         1 <0>         0.3649
     95 H53         1.1259    1.6989    4.0566 H         1 <0>         0.3805
     96 H54        -4.6037   -3.6978    3.2206 H         1 <0>         0.4609
@<TRIPOS>BOND
     1    1    2 1
     2    1   45 1
     3    1   46 1
     4    1   47 1
     5    2    3 1
     6    2    4 1
     7    2   48 1
     8    3   49 1
     9    3   50 1
    10    3   51 1
    11    4    5 1
    12    4   52 1
    13    4   53 1
    14    5    6 1
    15    5    7 1
    16    5   44 1
    17    7    8 1
    18    7    9 1
    19    7   43 1
    20    9   10 1
    21    9   17 1
    22    9   54 1
    23   10   11 1
    24   10   55 1
    25   10   56 1
    26   11   16 1
    27   11   12 1
    28   11   57 1
    29   12   13 1
    30   12   58 1
    31   12   59 1
    32   13   14 1
    33   13   60 1
    34   13   61 1
    35   14   15 1
    36   14   62 1
    37   14   63 1
    38   15   16 1
    39   15   64 1
    40   15   65 1
    41   16   66 1
    42   16   67 1
    43   17   18 am
    44   17   68 1
    45   18   19 2
    46   18   20 1
    47   20   21 1
    48   20   27 1
    49   20   69 1
    50   21   70 1
    51   21   71 1
    52   21   22 1
    53   22   23 2
    54   22   26 1
    55   23   24 1
    56   23   73 1
    57   24   25 1
    58   24   72 1
    59   25   74 1
    60   25   26 2
    61   26   96 1
    62   27   28 am
    63   27   75 1
    64   28   29 2
    65   28   30 1
    66   30   31 1
    67   30   38 1
    68   30   76 1
    69   31   32 1
    70   31   77 1
    71   31   78 1
    72   32   37 ar
    73   32   33 ar
    74   33   34 ar
    75   33   79 1
    76   34   35 ar
    77   34   80 1
    78   35   36 ar
    79   35   81 1
    80   36   37 ar
    81   36   82 1
    82   37   83 1
    83   38   39 1
    84   38   84 1
    85   39   40 1
    86   39   85 1
    87   39   86 1
    88   40   41 1
    89   40   42 1
    90   40   87 1
    91   41   88 1
    92   41   89 1
    93   41   90 1
    94   42   91 1
    95   42   92 1
    96   42   93 1
    97   43   94 1
    98   44   95 1
@<TRIPOS>MOLECULE
CHEMBL73278__6
   96    98     0     0     0
SMALL
USER_CHARGES

@<TRIPOS>ATOM
      1 C1          0.6514   -0.2560    1.3577 C.3       1 <0>        -0.1507
      2 C2          0.0379   -0.0876   -0.0338 C.3       1 <0>        -0.0934
      3 C3          0.8806   -0.8497   -1.0584 C.3       1 <0>        -0.1482
      4 C4         -1.3882   -0.6419   -0.0329 C.3       1 <0>        -0.1463
      5 C5         -2.0504   -0.3483   -1.3805 C.3       1 <0>         0.0781
      6 H1         -1.4402   -0.7627   -2.1831 H         1 <0>         0.0992
      7 C6         -3.4406   -0.9861   -1.4154 C.3       1 <0>         0.0656
      8 H2         -4.0508   -0.5716   -0.6129 H         1 <0>         0.1158
      9 C7         -4.1028   -0.6924   -2.7631 C.3       1 <0>         0.1184
     10 C8         -5.4931   -1.3302   -2.7980 C.3       1 <0>        -0.1253
     11 C9         -6.2040   -0.9331   -4.0933 C.3       1 <0>        -0.0768
     12 C10        -6.4511    0.5768   -4.0971 C.3       1 <0>        -0.1077
     13 C11        -7.1621    0.9739   -5.3924 C.3       1 <0>        -0.1071
     14 C12        -8.5001    0.2378   -5.4861 C.3       1 <0>        -0.1234
     15 C13        -8.2530   -1.2721   -5.4822 C.3       1 <0>        -0.1138
     16 C14        -7.5421   -1.6692   -4.1869 C.3       1 <0>        -0.1185
     17 N1         -3.2828   -1.2495   -3.8417 N.am      1 <0>        -0.7122
     18 C15        -3.3513   -0.7235   -5.0808 C.2       1 <0>         0.5135
     19 O1         -4.0919    0.2109   -5.3027 O.2       1 <0>        -0.5124
     20 C16        -2.5078   -1.2966   -6.1903 C.3       1 <0>         0.1373
     21 C17        -1.0282   -1.1776   -5.8196 C.3       1 <0>        -0.0413
     22 C18        -0.1906   -1.8596   -6.8705 C.2       1 <0>         0.0036
     23 C19         0.8200   -1.3003   -7.5629 C.2       1 <0>        -0.0569
     24 N2          1.3037   -2.2642   -8.4059 N.pl3     1 <0>        -0.5715
     25 C20         0.5713   -3.3798   -8.1991 C.2       1 <0>         0.1918
     26 N3         -0.3172   -3.1318   -7.2759 N.2       1 <0>        -0.4529
     27 N4         -2.7619   -0.5566   -7.4289 N.am      1 <0>        -0.6834
     28 C21        -2.5487   -1.1462   -8.6220 C.2       1 <0>         0.5035
     29 O2         -2.1464   -2.2894   -8.6702 O.2       1 <0>        -0.4871
     30 C22        -2.8101   -0.3851   -9.8961 C.3       1 <0>         0.0098
     31 C23        -1.6294    0.5434  -10.1869 C.3       1 <0>        -0.0874
     32 C24        -1.9431    1.3929  -11.3915 C.ar      1 <0>        -0.1281
     33 C25        -1.6122    0.9464  -12.6572 C.ar      1 <0>        -0.1409
     34 C26        -1.9000    1.7255  -13.7622 C.ar      1 <0>        -0.1060
     35 C27        -2.5191    2.9510  -13.6014 C.ar      1 <0>        -0.1011
     36 C28        -2.8508    3.3971  -12.3358 C.ar      1 <0>        -0.1037
     37 C29        -2.5669    2.6160  -11.2312 C.ar      1 <0>        -0.1018
     38 N5         -2.9738   -1.3319  -11.0073 N.4       1 <0>        -0.4930
     39 C30        -4.1779   -2.1437  -10.7855 C.3       1 <0>        -0.0136
     40 C31        -4.3483   -3.1298  -11.9429 C.3       1 <0>        -0.1131
     41 C32        -5.5291   -4.0583  -11.6521 C.3       1 <0>        -0.1507
     42 C33        -4.6138   -2.3570  -13.2364 C.3       1 <0>        -0.1710
     43 O3         -3.3209   -2.3994   -1.2414 O.3       1 <0>        -0.5405
     44 O4         -2.1701    1.0650   -1.5546 O.3       1 <0>        -0.5505
     45 H3          1.6949    0.0579    1.3351 H         1 <0>         0.0559
     46 H4          0.1030    0.3569    2.0731 H         1 <0>         0.0545
     47 H5          0.5932   -1.3027    1.6562 H         1 <0>         0.0547
     48 H6          0.0163    0.9702   -0.2958 H         1 <0>         0.0757
     49 H7          0.9021   -1.9076   -0.7964 H         1 <0>         0.0541
     50 H8          0.4435   -0.7298   -2.0497 H         1 <0>         0.0506
     51 H9          1.8966   -0.4548   -1.0590 H         1 <0>         0.0550
     52 H10        -1.3592   -1.7191    0.1307 H         1 <0>         0.0807
     53 H11        -1.9615   -0.1687    0.7644 H         1 <0>         0.0675
     54 H12        -4.1942    0.3856   -2.8958 H         1 <0>         0.1118
     55 H13        -5.3963   -2.4151   -2.7545 H         1 <0>         0.0709
     56 H14        -6.0738   -0.9827   -1.9435 H         1 <0>         0.0735
     57 H15        -5.5812   -1.2016   -4.9466 H         1 <0>         0.0703
     58 H16        -7.0740    0.8452   -3.2438 H         1 <0>         0.0484
     59 H17        -5.4979    1.1011   -4.0304 H         1 <0>         0.0788
     60 H18        -7.3381    2.0495   -5.3952 H         1 <0>         0.0541
     61 H19        -6.5392    0.7055   -6.2457 H         1 <0>         0.0572
     62 H20        -9.1230    0.5062   -4.6328 H         1 <0>         0.0607
     63 H21        -9.0066    0.5207   -6.4089 H         1 <0>         0.0556
     64 H22        -9.2062   -1.7964   -5.5489 H         1 <0>         0.0585
     65 H23        -7.6302   -1.5405   -6.3355 H         1 <0>         0.0524
     66 H24        -7.3660   -2.7449   -4.1842 H         1 <0>         0.0563
     67 H25        -8.1649   -1.4008   -3.3336 H         1 <0>         0.0611
     68 H26        -2.6905   -1.9969   -3.6642 H         1 <0>         0.3959
     69 H27        -2.7627   -2.3464   -6.3354 H         1 <0>         0.1289
     70 H28        -0.7517   -0.1248   -5.7615 H         1 <0>         0.0865
     71 H29        -0.8563   -1.6522   -4.8535 H         1 <0>         0.0906
     72 H30         2.0357   -2.1645   -9.0344 H         1 <0>         0.4198
     73 H31         1.1795   -0.2860   -7.4710 H         1 <0>         0.1692
     74 H32         0.7019   -4.3222   -8.7101 H         1 <0>         0.2022
     75 H33        -3.0837    0.3576   -7.3904 H         1 <0>         0.4154
     76 H34        -3.7190    0.2065   -9.7859 H         1 <0>         0.1596
     77 H35        -1.4521    1.1866   -9.3250 H         1 <0>         0.1240
     78 H36        -0.7385   -0.0527  -10.3847 H         1 <0>         0.1010
     79 H37        -1.1285   -0.0111  -12.7828 H         1 <0>         0.1201
     80 H38        -1.6408    1.3770  -14.7510 H         1 <0>         0.1326
     81 H39        -2.7433    3.5601  -14.4647 H         1 <0>         0.1333
     82 H40        -3.3342    4.3547  -12.2102 H         1 <0>         0.1342
     83 H41        -2.8294    2.9628  -10.2427 H         1 <0>         0.1316
     84 H42        -3.0668   -0.8218  -11.8728 H         1 <0>         0.4279
     85 H43        -4.0774   -2.6948   -9.8505 H         1 <0>         0.1397
     86 H44        -5.0503   -1.4925  -10.7316 H         1 <0>         0.1301
     87 H45        -3.4395   -3.7214  -12.0530 H         1 <0>         0.0948
     88 H46        -6.4380   -3.4667  -11.5419 H         1 <0>         0.0672
     89 H47        -5.6506   -4.7608  -12.4766 H         1 <0>         0.0783
     90 H48        -5.3400   -4.6088  -10.7305 H         1 <0>         0.0690
     91 H49        -3.7726   -1.6956  -13.4436 H         1 <0>         0.0489
     92 H50        -4.7352   -3.0596  -14.0609 H         1 <0>         0.0849
     93 H51        -5.5226   -1.7655  -13.1263 H         1 <0>         0.0730
     94 H52        -2.7896   -2.8357   -1.9214 H         1 <0>         0.3691
     95 H53        -2.7014    1.5014   -0.8745 H         1 <0>         0.3777
     96 H54        -2.1662   -1.9347  -11.0572 H         1 <0>         0.4303
@<TRIPOS>BOND
     1    1    2 1
     2    1   45 1
     3    1   46 1
     4    1   47 1
     5    2    3 1
     6    2    4 1
     7    2   48 1
     8    3   49 1
     9    3   50 1
    10    3   51 1
    11    4    5 1
    12    4   52 1
    13    4   53 1
    14    5    6 1
    15    5    7 1
    16    5   44 1
    17    7    8 1
    18    7    9 1
    19    7   43 1
    20    9   10 1
    21    9   17 1
    22    9   54 1
    23   10   11 1
    24   10   55 1
    25   10   56 1
    26   11   16 1
    27   11   12 1
    28   11   57 1
    29   12   13 1
    30   12   58 1
    31   12   59 1
    32   13   14 1
    33   13   60 1
    34   13   61 1
    35   14   15 1
    36   14   62 1
    37   14   63 1
    38   15   16 1
    39   15   64 1
    40   15   65 1
    41   16   66 1
    42   16   67 1
    43   17   18 am
    44   17   68 1
    45   18   19 2
    46   18   20 1
    47   20   21 1
    48   20   27 1
    49   20   69 1
    50   21   70 1
    51   21   71 1
    52   21   22 1
    53   22   23 2
    54   22   26 1
    55   23   24 1
    56   23   73 1
    57   24   25 1
    58   24   72 1
    59   25   74 1
    60   25   26 2
    61   27   28 am
    62   27   75 1
    63   28   29 2
    64   28   30 1
    65   30   31 1
    66   30   38 1
    67   30   76 1
    68   31   32 1
    69   31   77 1
    70   31   78 1
    71   32   37 ar
    72   32   33 ar
    73   33   34 ar
    74   33   79 1
    75   34   35 ar
    76   34   80 1
    77   35   36 ar
    78   35   81 1
    79   36   37 ar
    80   36   82 1
    81   37   83 1
    82   38   39 1
    83   38   84 1
    84   38   96 1
    85   39   40 1
    86   39   85 1
    87   39   86 1
    88   40   41 1
    89   40   42 1
    90   40   87 1
    91   41   88 1
    92   41   89 1
    93   41   90 1
    94   42   91 1
    95   42   92 1
    96   42   93 1
    97   43   94 1
    98   44   95 1
@<TRIPOS>MOLECULE
CHEMBL73278__7
   97    99     0     0     0
SMALL
USER_CHARGES

@<TRIPOS>ATOM
      1 C1         -0.0187    1.5258    0.0104 C.3       1 <0>        -0.1531
      2 C2          0.0021   -0.0041    0.0020 C.3       1 <0>        -0.0936
      3 C3          0.7421   -0.5109    1.2415 C.3       1 <0>        -0.1460
      4 C4         -1.4333   -0.5336    0.0129 C.3       1 <0>        -0.1492
      5 C5         -1.4157   -2.0577   -0.1212 C.3       1 <0>         0.0812
      6 H1         -0.7891   -2.4841    0.6622 H         1 <0>         0.0930
      7 C6         -2.8406   -2.5981    0.0146 C.3       1 <0>         0.0630
      8 H2         -3.4671   -2.1717   -0.7688 H         1 <0>         0.1213
      9 C7         -2.8229   -4.1221   -0.1195 C.3       1 <0>         0.1178
     10 C8         -4.2478   -4.6626    0.0163 C.3       1 <0>        -0.1278
     11 C9         -4.2480   -6.1707   -0.2413 C.3       1 <0>        -0.0743
     12 C10        -3.8496   -6.4400   -1.6938 C.3       1 <0>        -0.1103
     13 C11        -3.8498   -7.9482   -1.9515 C.3       1 <0>        -0.1062
     14 C12        -5.2497   -8.5094   -1.6941 C.3       1 <0>        -0.1261
     15 C13        -5.6480   -8.2401   -0.2416 C.3       1 <0>        -0.1131
     16 C14        -5.6479   -6.7319    0.0160 C.3       1 <0>        -0.1203
     17 N1         -1.9808   -4.6953    0.9334 N.am      1 <0>        -0.7080
     18 C15        -1.4030   -5.8995    0.7534 C.2       1 <0>         0.5091
     19 O1         -1.5802   -6.5087   -0.2802 O.2       1 <0>        -0.4908
     20 C16        -0.5368   -6.4891    1.8365 C.3       1 <0>         0.1275
     21 C17         0.6403   -5.5522    2.1147 C.3       1 <0>        -0.0770
     22 C18         1.4376   -6.0794    3.2798 C.2       1 <0>         0.0503
     23 C19         2.4148   -7.0038    3.2164 C.2       1 <0>         0.0199
     24 N2          2.8689   -7.1884    4.4944 N.pl3     1 <0>        -0.5064
     25 C20         2.1529   -6.3698    5.2949 C.cat     1 <0>         0.3255
     26 N3          1.3022   -5.7060    4.5609 N.pl3     1 <0>        -0.4670
     27 N4         -0.0307   -7.7932    1.4014 N.am      1 <0>        -0.6805
     28 C21         0.3222   -8.7183    2.3157 C.2       1 <0>         0.5149
     29 O2          0.2209   -8.4712    3.4987 O.2       1 <0>        -0.5315
     30 C22         0.8428  -10.0598    1.8681 C.3       1 <0>         0.0055
     31 C23         2.3183   -9.9320    1.4839 C.3       1 <0>        -0.0916
     32 C24         2.8061  -11.2420    0.9210 C.ar      1 <0>        -0.1413
     33 C25         3.3415  -12.1993    1.7623 C.ar      1 <0>        -0.1413
     34 C26         3.7889  -13.4010    1.2460 C.ar      1 <0>        -0.1034
     35 C27         3.7007  -13.6455   -0.1117 C.ar      1 <0>        -0.0922
     36 C28         3.1646  -12.6886   -0.9530 C.ar      1 <0>        -0.1005
     37 C29         2.7131  -11.4886   -0.4360 C.ar      1 <0>        -0.0990
     38 N5          0.7042  -11.0291    2.9631 N.4       1 <0>        -0.4938
     39 C30        -0.7205  -11.2416    3.2515 C.3       1 <0>        -0.0155
     40 C31        -0.8649  -12.2512    4.3920 C.3       1 <0>        -0.1117
     41 C32        -2.3404  -12.3790    4.7762 C.3       1 <0>        -0.1529
     42 C33        -0.3364  -13.6132    3.9376 C.3       1 <0>        -0.1739
     43 O3         -3.3665   -2.2385    1.2937 O.3       1 <0>        -0.5349
     44 O4         -0.8897   -2.4172   -1.4003 O.3       1 <0>        -0.5531
     45 H3          1.0039    1.9031    0.0027 H         1 <0>         0.0575
     46 H4         -0.5459    1.8868   -0.8726 H         1 <0>         0.0577
     47 H5         -0.5289    1.8773    0.9072 H         1 <0>         0.0555
     48 H6          0.5123   -0.3556   -0.8948 H         1 <0>         0.0767
     49 H7          0.7568   -1.6008    1.2356 H         1 <0>         0.0439
     50 H8          1.7647   -0.1336    1.2338 H         1 <0>         0.0566
     51 H9          0.2319   -0.1594    2.1383 H         1 <0>         0.0539
     52 H10        -1.9156   -0.2570    0.9504 H         1 <0>         0.0813
     53 H11        -1.9862   -0.1019   -0.8214 H         1 <0>         0.0715
     54 H12        -2.4217   -4.3964   -1.0952 H         1 <0>         0.1167
     55 H13        -4.6166   -4.4659    1.0230 H         1 <0>         0.0719
     56 H14        -4.8941   -4.1698   -0.7101 H         1 <0>         0.0795
     57 H15        -3.5345   -6.6535    0.4265 H         1 <0>         0.0641
     58 H16        -4.5631   -5.9573   -2.3617 H         1 <0>         0.0531
     59 H17        -2.8523   -6.0402   -1.8772 H         1 <0>         0.0767
     60 H18        -3.5660   -8.1400   -2.9863 H         1 <0>         0.0570
     61 H19        -3.1364   -8.4309   -1.2836 H         1 <0>         0.0537
     62 H20        -5.9631   -8.0266   -2.3620 H         1 <0>         0.0638
     63 H21        -5.2498   -9.5838   -1.8777 H         1 <0>         0.0581
     64 H22        -6.6453   -8.6399   -0.0583 H         1 <0>         0.0614
     65 H23        -4.9346   -8.7229    0.4262 H         1 <0>         0.0496
     66 H24        -5.9316   -6.5401    1.0508 H         1 <0>         0.0562
     67 H25        -6.3613   -6.2492   -0.6519 H         1 <0>         0.0647
     68 H26        -1.8392   -4.2080    1.7601 H         1 <0>         0.3921
     69 H27        -1.1255   -6.6127    2.7456 H         1 <0>         0.1289
     70 H28         1.2783   -5.4985    1.2325 H         1 <0>         0.1299
     71 H29         0.2644   -4.5570    2.3523 H         1 <0>         0.1175
     72 H30         3.5735   -7.7941    4.7730 H         1 <0>         0.4664
     73 H31         2.7714   -7.5037    2.3279 H         1 <0>         0.2127
     74 H32         2.2680   -6.2768    6.3647 H         1 <0>         0.2685
     75 H33         0.0503   -7.9908    0.4552 H         1 <0>         0.4290
     76 H34         0.2711  -10.4020    1.0054 H         1 <0>         0.1714
     77 H35         2.4320   -9.1494    0.7338 H         1 <0>         0.1272
     78 H36         2.9029   -9.6760    2.3676 H         1 <0>         0.0966
     79 H37         3.4104  -12.0083    2.8231 H         1 <0>         0.1191
     80 H38         4.2078  -14.1486    1.9032 H         1 <0>         0.1358
     81 H39         4.0510  -14.5841   -0.5153 H         1 <0>         0.1376
     82 H40         3.0959  -12.8795   -2.0138 H         1 <0>         0.1380
     83 H41         2.2908  -10.7424   -1.0928 H         1 <0>         0.1326
     84 H42         1.1269  -11.9046    2.6930 H         1 <0>         0.4356
     85 H43        -1.1771  -10.2959    3.5434 H         1 <0>         0.1362
     86 H44        -1.2181  -11.6258    2.3610 H         1 <0>         0.1352
     87 H45        -0.2932  -11.9090    5.2547 H         1 <0>         0.0931
     88 H46        -2.9121  -12.7212    3.9135 H         1 <0>         0.0703
     89 H47        -2.4433  -13.0983    5.5887 H         1 <0>         0.0824
     90 H48        -2.7169  -11.4087    5.1000 H         1 <0>         0.0667
     91 H49        -0.9081  -13.9553    3.0749 H         1 <0>         0.0760
     92 H50         0.7147  -13.5221    3.6639 H         1 <0>         0.0491
     93 H51        -0.4393  -14.3324    4.7501 H         1 <0>         0.0888
     94 H52        -2.8578   -2.5847    2.0396 H         1 <0>         0.3629
     95 H53        -1.3985   -2.0711   -2.1462 H         1 <0>         0.3835
     96 H54         1.1647  -10.6735    3.7874 H         1 <0>         0.4266
     97 H55         0.6704   -5.0477    4.8901 H         1 <0>         0.4662
@<TRIPOS>BOND
     1    1    2 1
     2    1   45 1
     3    1   46 1
     4    1   47 1
     5    2    3 1
     6    2    4 1
     7    2   48 1
     8    3   49 1
     9    3   50 1
    10    3   51 1
    11    4    5 1
    12    4   52 1
    13    4   53 1
    14    5    6 1
    15    5    7 1
    16    5   44 1
    17    7    8 1
    18    7    9 1
    19    7   43 1
    20    9   10 1
    21    9   17 1
    22    9   54 1
    23   10   11 1
    24   10   55 1
    25   10   56 1
    26   11   16 1
    27   11   12 1
    28   11   57 1
    29   12   13 1
    30   12   58 1
    31   12   59 1
    32   13   14 1
    33   13   60 1
    34   13   61 1
    35   14   15 1
    36   14   62 1
    37   14   63 1
    38   15   16 1
    39   15   64 1
    40   15   65 1
    41   16   66 1
    42   16   67 1
    43   17   18 am
    44   17   68 1
    45   18   19 2
    46   18   20 1
    47   20   21 1
    48   20   27 1
    49   20   69 1
    50   21   70 1
    51   21   71 1
    52   21   22 1
    53   22   23 2
    54   22   26 1
    55   23   24 1
    56   23   73 1
    57   24   25 1
    58   24   72 1
    59   25   74 1
    60   25   26 2
    61   26   97 1
    62   27   28 am
    63   27   75 1
    64   28   29 2
    65   28   30 1
    66   30   31 1
    67   30   38 1
    68   30   76 1
    69   31   32 1
    70   31   77 1
    71   31   78 1
    72   32   37 ar
    73   32   33 ar
    74   33   34 ar
    75   33   79 1
    76   34   35 ar
    77   34   80 1
    78   35   36 ar
    79   35   81 1
    80   36   37 ar
    81   36   82 1
    82   37   83 1
    83   38   39 1
    84   38   84 1
    85   38   96 1
    86   39   40 1
    87   39   85 1
    88   39   86 1
    89   40   41 1
    90   40   42 1
    91   40   87 1
    92   41   88 1
    93   41   89 1
    94   41   90 1
    95   42   91 1
    96   42   92 1
    97   42   93 1
    98   43   94 1
    99   44   95 1
@<TRIPOS>MOLECULE
CHEMBL73278__8
   96    98     0     0     0
SMALL
USER_CHARGES

@<TRIPOS>ATOM
      1 C1          0.9810    2.5175    2.0290 C.3       1 <0>        -0.1506
      2 C2          1.0279    1.0130    1.7550 C.3       1 <0>        -0.0937
      3 C3          1.2285    0.2607    3.0722 C.3       1 <0>        -0.1486
      4 C4         -0.2872    0.5707    1.1103 C.3       1 <0>        -0.1463
      5 C5         -0.1937   -0.9064    0.7226 C.3       1 <0>         0.0775
      6 H1          0.0807   -1.4951    1.5979 H         1 <0>         0.0991
      7 C6         -1.5482   -1.3814    0.1928 C.3       1 <0>         0.0656
      8 H2         -1.8227   -0.7927   -0.6825 H         1 <0>         0.1162
      9 C7         -1.4548   -2.8585   -0.1948 C.3       1 <0>         0.1185
     10 C8         -2.8093   -3.3334   -0.7246 C.3       1 <0>        -0.1254
     11 C9         -2.6838   -4.7728   -1.2280 C.3       1 <0>        -0.0764
     12 C10        -1.7417   -4.8114   -2.4329 C.3       1 <0>        -0.1080
     13 C11        -1.6163   -6.2508   -2.9363 C.3       1 <0>        -0.1102
     14 C12        -2.9953   -6.7683   -3.3502 C.3       1 <0>        -0.1231
     15 C13        -3.9373   -6.7297   -2.1453 C.3       1 <0>        -0.1232
     16 C14        -4.0628   -5.2904   -1.6419 C.3       1 <0>        -0.1182
     17 N1         -1.0859   -3.6497    0.9817 N.am      1 <0>        -0.7120
     18 C15        -0.4646   -4.8359    0.8283 C.2       1 <0>         0.5136
     19 O1         -0.2109   -5.2482   -0.2837 O.2       1 <0>        -0.5045
     20 C16        -0.0852   -5.6498    2.0385 C.3       1 <0>         0.1301
     21 C17        -1.3440   -5.9925    2.8378 C.3       1 <0>        -0.0566
     22 C18        -0.9509   -6.6364    4.1423 C.2       1 <0>        -0.0240
     23 C19        -0.5416   -6.0038    5.2586 C.2       1 <0>         0.0096
     24 N2         -0.2897   -6.9324    6.1930 N.2       1 <0>        -0.4749
     25 C20        -0.5273   -8.1164    5.6983 C.2       1 <0>         0.1831
     26 N3         -0.9469   -7.9762    4.4224 N.pl3     1 <0>        -0.5744
     27 N4          0.5722   -6.8865    1.6088 N.am      1 <0>        -0.6807
     28 C21         1.4054   -7.5334    2.4477 C.2       1 <0>         0.5015
     29 O2          1.6792   -7.0475    3.5246 O.2       1 <0>        -0.5005
     30 C22         1.9966   -8.8606    2.0476 C.3       1 <0>         0.0056
     31 C23         0.9027   -9.9302    2.0579 C.3       1 <0>        -0.0903
     32 C24        -0.0601   -9.6749    0.9270 C.ar      1 <0>        -0.1221
     33 C25        -1.2202   -8.9586    1.1553 C.ar      1 <0>        -0.1105
     34 C26        -2.1033   -8.7245    0.1179 C.ar      1 <0>        -0.1070
     35 C27        -1.8262   -9.2063   -1.1478 C.ar      1 <0>        -0.0885
     36 C28        -0.6657   -9.9218   -1.3762 C.ar      1 <0>        -0.1060
     37 C29         0.2195  -10.1522   -0.3398 C.ar      1 <0>        -0.1021
     38 N5          3.0537   -9.2321    2.9976 N.4       1 <0>        -0.4940
     39 C30         3.7240  -10.4532    2.5314 C.3       1 <0>        -0.0131
     40 C31         4.8097  -10.8530    3.5326 C.3       1 <0>        -0.1165
     41 C32         4.1601  -11.2315    4.8652 C.3       1 <0>        -0.1722
     42 C33         5.5902  -12.0507    2.9874 C.3       1 <0>        -0.1518
     43 O3         -2.5408   -1.2171    1.2076 O.3       1 <0>        -0.5394
     44 O4          0.7988   -1.0707   -0.2922 O.3       1 <0>        -0.5512
     45 H3          1.9179    2.8326    2.4883 H         1 <0>         0.0561
     46 H4          0.8381    3.0534    1.0906 H         1 <0>         0.0546
     47 H5          0.1535    2.7384    2.7032 H         1 <0>         0.0551
     48 H6          1.8554    0.7921    1.0808 H         1 <0>         0.0749
     49 H7          0.4010    0.4816    3.7464 H         1 <0>         0.0550
     50 H8          1.2619   -0.8111    2.8770 H         1 <0>         0.0500
     51 H9          2.1654    0.5758    3.5315 H         1 <0>         0.0557
     52 H10        -1.1039    0.7094    1.8187 H         1 <0>         0.0814
     53 H11        -0.4740    1.1692    0.2186 H         1 <0>         0.0676
     54 H12        -0.6977   -2.9838   -0.9689 H         1 <0>         0.1118
     55 H13        -3.5476   -3.2916    0.0762 H         1 <0>         0.0714
     56 H14        -3.1254   -2.6881   -1.5443 H         1 <0>         0.0741
     57 H15        -2.2831   -5.4020   -0.4332 H         1 <0>         0.0709
     58 H16        -2.1424   -4.1822   -3.2277 H         1 <0>         0.0481
     59 H17        -0.7593   -4.4427   -2.1380 H         1 <0>         0.0777
     60 H18        -0.9451   -6.2783   -3.7947 H         1 <0>         0.0526
     61 H19        -1.2156   -6.8800   -2.1415 H         1 <0>         0.0632
     62 H20        -3.3960   -6.1391   -4.1450 H         1 <0>         0.0609
     63 H21        -2.9059   -7.7938   -3.7088 H         1 <0>         0.0555
     64 H22        -4.9197   -7.0985   -2.4402 H         1 <0>         0.0589
     65 H23        -3.5366   -7.3589   -1.3505 H         1 <0>         0.0602
     66 H24        -4.7339   -5.2629   -0.7835 H         1 <0>         0.0561
     67 H25        -4.4635   -4.6612   -2.4367 H         1 <0>         0.0611
     68 H26        -1.2888   -3.3199    1.8710 H         1 <0>         0.3951
     69 H27         0.5970   -5.0742    2.6642 H         1 <0>         0.1270
     70 H28        -1.9069   -5.0807    3.0377 H         1 <0>         0.1071
     71 H29        -1.9622   -6.6827    2.2637 H         1 <0>         0.0848
     72 H30        -0.4349   -4.9360    5.3800 H         1 <0>         0.1657
     73 H31        -0.4110   -9.0530    6.2234 H         1 <0>         0.2038
     74 H32         0.4079   -7.2397    0.7204 H         1 <0>         0.4204
     75 H33         2.4193   -8.7828    1.0459 H         1 <0>         0.1650
     76 H34         1.3553  -10.9140    1.9346 H         1 <0>         0.1136
     77 H35         0.3671   -9.8929    3.0065 H         1 <0>         0.0921
     78 H36        -1.4367   -8.5822    2.1441 H         1 <0>         0.1098
     79 H37        -3.0100   -8.1655    0.2964 H         1 <0>         0.1288
     80 H38        -2.5166   -9.0240   -1.9581 H         1 <0>         0.1343
     81 H39        -0.4494  -10.2985   -2.3650 H         1 <0>         0.1322
     82 H40         1.1280  -10.7080   -0.5191 H         1 <0>         0.1270
     83 H41         3.7264   -8.4828    3.0621 H         1 <0>         0.4356
     84 H42         2.9942  -11.2583    2.4460 H         1 <0>         0.1355
     85 H43         4.1778  -10.2694    1.5575 H         1 <0>         0.1370
     86 H44         5.4898  -10.0150    3.6850 H         1 <0>         0.0963
     87 H45         4.9335  -11.5163    5.5784 H         1 <0>         0.0856
     88 H46         3.6041  -10.3782    5.2536 H         1 <0>         0.0531
     89 H47         3.4800  -12.0695    4.7128 H         1 <0>         0.0727
     90 H48         6.0529  -11.7811    2.0380 H         1 <0>         0.0684
     91 H49         6.3636  -12.3356    3.7006 H         1 <0>         0.0796
     92 H50         4.9100  -12.8887    2.8350 H         1 <0>         0.0683
     93 H51        -2.3611   -1.7139    2.0176 H         1 <0>         0.3682
     94 H52         0.6192   -0.5739   -1.1022 H         1 <0>         0.3778
     95 H53         2.6466   -9.3977    3.9058 H         1 <0>         0.4313
     96 H54        -1.1972   -8.6915    3.8169 H         1 <0>         0.4062
@<TRIPOS>BOND
     1    1    2 1
     2    1   45 1
     3    1   46 1
     4    1   47 1
     5    2    3 1
     6    2    4 1
     7    2   48 1
     8    3   49 1
     9    3   50 1
    10    3   51 1
    11    4    5 1
    12    4   52 1
    13    4   53 1
    14    5    6 1
    15    5    7 1
    16    5   44 1
    17    7    8 1
    18    7    9 1
    19    7   43 1
    20    9   10 1
    21    9   17 1
    22    9   54 1
    23   10   11 1
    24   10   55 1
    25   10   56 1
    26   11   16 1
    27   11   12 1
    28   11   57 1
    29   12   13 1
    30   12   58 1
    31   12   59 1
    32   13   14 1
    33   13   60 1
    34   13   61 1
    35   14   15 1
    36   14   62 1
    37   14   63 1
    38   15   16 1
    39   15   64 1
    40   15   65 1
    41   16   66 1
    42   16   67 1
    43   17   18 am
    44   17   68 1
    45   18   19 2
    46   18   20 1
    47   20   21 1
    48   20   27 1
    49   20   69 1
    50   21   70 1
    51   21   71 1
    52   21   22 1
    53   22   23 2
    54   22   26 1
    55   23   24 1
    56   23   72 1
    57   24   25 2
    58   25   73 1
    59   25   26 1
    60   26   96 1
    61   27   28 am
    62   27   74 1
    63   28   29 2
    64   28   30 1
    65   30   31 1
    66   30   38 1
    67   30   75 1
    68   31   32 1
    69   31   76 1
    70   31   77 1
    71   32   37 ar
    72   32   33 ar
    73   33   34 ar
    74   33   78 1
    75   34   35 ar
    76   34   79 1
    77   35   36 ar
    78   35   80 1
    79   36   37 ar
    80   36   81 1
    81   37   82 1
    82   38   39 1
    83   38   83 1
    84   38   95 1
    85   39   40 1
    86   39   84 1
    87   39   85 1
    88   40   41 1
    89   40   42 1
    90   40   86 1
    91   41   87 1
    92   41   88 1
    93   41   89 1
    94   42   90 1
    95   42   91 1
    96   42   92 1
    97   43   93 1
    98   44   94 1
@<TRIPOS>MOLECULE
CHEMBL73278__9
   96    98     0     0     0
SMALL
USER_CHARGES

@<TRIPOS>ATOM
      1 C1          0.8127   -0.5159   -1.2455 C.3       1 <0>        -0.1508
      2 C2         -0.0821   -0.3210   -0.0198 C.3       1 <0>        -0.0946
      3 C3         -1.3710   -1.1263   -0.1960 C.3       1 <0>        -0.1475
      4 C4          0.6543   -0.8045    1.2312 C.3       1 <0>        -0.1462
      5 C5         -0.1835   -0.4858    2.4712 C.3       1 <0>         0.0783
      6 H1         -1.1743   -0.9271    2.3635 H         1 <0>         0.0970
      7 C6          0.5005   -1.0647    3.7113 C.3       1 <0>         0.0654
      8 H2          1.4914   -0.6235    3.8191 H         1 <0>         0.1177
      9 C7         -0.3372   -0.7461    4.9513 C.3       1 <0>         0.1174
     10 C8          0.3467   -1.3250    6.1915 C.3       1 <0>        -0.1242
     11 C9         -0.4235   -0.9008    7.4435 C.3       1 <0>        -0.0764
     12 C10        -0.3369    0.6182    7.6054 C.3       1 <0>        -0.1094
     13 C11        -1.1072    1.0424    8.8575 C.3       1 <0>        -0.1088
     14 C12        -0.4980    0.3630   10.0856 C.3       1 <0>        -0.1241
     15 C13        -0.5847   -1.1559    9.9237 C.3       1 <0>        -0.1143
     16 C14         0.1856   -1.5801    8.6717 C.3       1 <0>        -0.1178
     17 N1         -1.6690   -1.3391    4.8065 N.am      1 <0>        -0.7141
     18 C15        -2.7168   -0.8131    5.4712 C.2       1 <0>         0.5108
     19 O1         -2.5572    0.1513    6.1892 O.2       1 <0>        -0.4939
     20 C16        -4.0867   -1.4231    5.3223 C.3       1 <0>         0.1257
     21 C17        -4.0491   -2.8807    5.7858 C.3       1 <0>        -0.0710
     22 C18        -5.3853   -3.5261    5.5229 C.2       1 <0>         0.0425
     23 C19        -5.7785   -4.0877    4.3638 C.2       1 <0>         0.0523
     24 N2         -7.0518   -4.5503    4.5598 N.pl3     1 <0>        -0.4993
     25 C20        -7.3926   -4.2550    5.8327 C.cat     1 <0>         0.3090
     26 N3         -6.3892   -3.6470    6.4042 N.pl3     1 <0>        -0.4735
     27 N4         -5.0457   -0.6754    6.1394 N.am      1 <0>        -0.7095
     28 C21        -6.3537   -0.6775    5.8144 C.2       1 <0>         0.4874
     29 O2         -6.7368   -1.2983    4.8455 O.2       1 <0>        -0.5423
     30 C22        -7.3402    0.0916    6.6549 C.3       1 <0>         0.0738
     31 C23        -7.7966   -0.7773    7.8286 C.3       1 <0>        -0.0573
     32 C24        -8.6868    0.0319    8.7362 C.ar      1 <0>        -0.0841
     33 C25        -8.1372    0.7548    9.7784 C.ar      1 <0>        -0.1178
     34 C26        -8.9538    1.4971   10.6110 C.ar      1 <0>        -0.1188
     35 C27       -10.3200    1.5167   10.4010 C.ar      1 <0>        -0.1136
     36 C28       -10.8695    0.7945    9.3583 C.ar      1 <0>        -0.1201
     37 C29       -10.0525    0.0557    8.5231 C.ar      1 <0>        -0.0860
     38 N5         -8.5028    0.4564    5.8345 N.3       1 <0>        -0.6505
     39 C30        -8.2269    1.6573    5.0347 C.3       1 <0>         0.0619
     40 C31        -9.5004    2.0869    4.3036 C.3       1 <0>        -0.0914
     41 C32        -9.2474    3.4059    3.5707 C.3       1 <0>        -0.1500
     42 C33        -9.8960    1.0092    3.2923 C.3       1 <0>        -0.1457
     43 O3          0.6227   -2.4815    3.5703 O.3       1 <0>        -0.5384
     44 O4         -0.3057    0.9309    2.6123 O.3       1 <0>        -0.5504
     45 H3          1.1275   -1.5578   -1.3035 H         1 <0>         0.0546
     46 H4          0.2575   -0.2534   -2.1460 H         1 <0>         0.0565
     47 H5          1.6904    0.1247   -1.1601 H         1 <0>         0.0553
     48 H6         -0.3258    0.7359    0.0878 H         1 <0>         0.0762
     49 H7         -1.1273   -2.1832   -0.3036 H         1 <0>         0.0536
     50 H8         -2.0084   -0.9875    0.6772 H         1 <0>         0.0489
     51 H9         -1.8956   -0.7819   -1.0873 H         1 <0>         0.0559
     52 H10         0.8125   -1.8810    1.1664 H         1 <0>         0.0804
     53 H11         1.6174   -0.2994    1.3038 H         1 <0>         0.0686
     54 H12        -0.4305    0.3346    5.0589 H         1 <0>         0.1129
     55 H13         0.3604   -2.4128    6.1244 H         1 <0>         0.0707
     56 H14         1.3692   -0.9517    6.2500 H         1 <0>         0.0752
     57 H15        -1.4680   -1.1967    7.3452 H         1 <0>         0.0679
     58 H16         0.7075    0.9141    7.7037 H         1 <0>         0.0497
     59 H17        -0.7709    1.1021    6.7305 H         1 <0>         0.0776
     60 H18        -1.0455    2.1245    8.9728 H         1 <0>         0.0559
     61 H19        -2.1516    0.7464    8.7592 H         1 <0>         0.0586
     62 H20         0.5464    0.6589   10.1839 H         1 <0>         0.0606
     63 H21        -1.0468    0.6652   10.9776 H         1 <0>         0.0582
     64 H22        -0.1507   -1.6399   10.7987 H         1 <0>         0.0592
     65 H23        -1.6291   -1.4519    9.8254 H         1 <0>         0.0533
     66 H24         0.1239   -2.6623    8.5563 H         1 <0>         0.0552
     67 H25         1.2301   -1.2842    8.7700 H         1 <0>         0.0617
     68 H26        -1.7966   -2.1104    4.2323 H         1 <0>         0.3918
     69 H27        -4.3909   -1.3822    4.2764 H         1 <0>         0.1235
     70 H28        -3.2731   -3.4160    5.2386 H         1 <0>         0.1231
     71 H29        -3.8318   -2.9170    6.8533 H         1 <0>         0.1066
     72 H30        -7.6059   -5.0052    3.9064 H         1 <0>         0.4663
     73 H31        -5.2005   -4.1592    3.4543 H         1 <0>         0.2212
     74 H32        -8.3375   -4.4872    6.3014 H         1 <0>         0.2619
     75 H33        -4.7393   -0.1790    6.9143 H         1 <0>         0.4185
     76 H34        -6.8658    0.9962    7.0354 H         1 <0>         0.1075
     77 H35        -8.3489   -1.6376    7.4506 H         1 <0>         0.0692
     78 H36        -6.9255   -1.1212    8.3863 H         1 <0>         0.0726
     79 H37        -7.0699    0.7395    9.9424 H         1 <0>         0.1171
     80 H38        -8.5245    2.0613   11.4256 H         1 <0>         0.1224
     81 H39       -10.9581    2.0961   11.0519 H         1 <0>         0.1224
     82 H40       -11.9369    0.8096    9.1945 H         1 <0>         0.1219
     83 H41       -10.4814   -0.5056    7.7062 H         1 <0>         0.1195
     84 H42        -8.7858   -0.3128    5.2460 H         1 <0>         0.3505
     85 H43        -7.8953    2.4623    5.6906 H         1 <0>         0.0745
     86 H44        -7.4464    1.4373    4.3063 H         1 <0>         0.0311
     87 H45       -10.3060    2.2211    5.0255 H         1 <0>         0.0814
     88 H46        -8.4418    3.2717    2.8489 H         1 <0>         0.0529
     89 H47       -10.1547    3.7120    3.0499 H         1 <0>         0.0611
     90 H48        -8.9655    4.1737    4.2912 H         1 <0>         0.0571
     91 H49        -9.0904    0.8750    2.5704 H         1 <0>         0.0498
     92 H50       -10.0763    0.0695    3.8144 H         1 <0>         0.0515
     93 H51       -10.8033    1.3153    2.7714 H         1 <0>         0.0584
     94 H52        -0.2221   -2.9411    3.4696 H         1 <0>         0.3652
     95 H53         0.5391    1.3905    2.7129 H         1 <0>         0.3793
     96 H54        -6.3727   -3.3307    7.3210 H         1 <0>         0.4574
@<TRIPOS>BOND
     1    1    2 1
     2    1   45 1
     3    1   46 1
     4    1   47 1
     5    2    3 1
     6    2    4 1
     7    2   48 1
     8    3   49 1
     9    3   50 1
    10    3   51 1
    11    4    5 1
    12    4   52 1
    13    4   53 1
    14    5    6 1
    15    5    7 1
    16    5   44 1
    17    7    8 1
    18    7    9 1
    19    7   43 1
    20    9   10 1
    21    9   17 1
    22    9   54 1
    23   10   11 1
    24   10   55 1
    25   10   56 1
    26   11   16 1
    27   11   12 1
    28   11   57 1
    29   12   13 1
    30   12   58 1
    31   12   59 1
    32   13   14 1
    33   13   60 1
    34   13   61 1
    35   14   15 1
    36   14   62 1
    37   14   63 1
    38   15   16 1
    39   15   64 1
    40   15   65 1
    41   16   66 1
    42   16   67 1
    43   17   18 am
    44   17   68 1
    45   18   19 2
    46   18   20 1
    47   20   21 1
    48   20   27 1
    49   20   69 1
    50   21   70 1
    51   21   71 1
    52   21   22 1
    53   22   23 2
    54   22   26 1
    55   23   24 1
    56   23   73 1
    57   24   25 1
    58   24   72 1
    59   25   74 1
    60   25   26 2
    61   26   96 1
    62   27   28 am
    63   27   75 1
    64   28   29 2
    65   28   30 1
    66   30   31 1
    67   30   38 1
    68   30   76 1
    69   31   32 1
    70   31   77 1
    71   31   78 1
    72   32   37 ar
    73   32   33 ar
    74   33   34 ar
    75   33   79 1
    76   34   35 ar
    77   34   80 1
    78   35   36 ar
    79   35   81 1
    80   36   37 ar
    81   36   82 1
    82   37   83 1
    83   38   39 1
    84   38   84 1
    85   39   40 1
    86   39   85 1
    87   39   86 1
    88   40   41 1
    89   40   42 1
    90   40   87 1
    91   41   88 1
    92   41   89 1
    93   41   90 1
    94   42   91 1
    95   42   92 1
    96   42   93 1
    97   43   94 1
    98   44   95 1
@<TRIPOS>MOLECULE
CHEMBL73278__10
   96    98     0     0     0
SMALL
USER_CHARGES

@<TRIPOS>ATOM
      1 C1          0.4265    1.2965    1.1580 C.3       1 <0>        -0.1505
      2 C2         -0.1816    1.2731   -0.2458 C.3       1 <0>        -0.0939
      3 C3          0.6982    0.4273   -1.1686 C.3       1 <0>        -0.1481
      4 C4         -1.5853    0.6676   -0.1836 C.3       1 <0>        -0.1462
      5 C5         -2.2564    0.7940   -1.5527 C.3       1 <0>         0.0782
      6 H1         -1.6203    0.3401   -2.3125 H         1 <0>         0.0983
      7 C6         -3.6086    0.0787   -1.5259 C.3       1 <0>         0.0658
      8 H2         -4.2448    0.5326   -0.7660 H         1 <0>         0.1155
      9 C7         -4.2798    0.2052   -2.8950 C.3       1 <0>         0.1190
     10 C8         -5.6320   -0.5102   -2.8681 C.3       1 <0>        -0.1245
     11 C9         -6.3579   -0.2786   -4.1949 C.3       1 <0>        -0.0763
     12 C10        -6.6892    1.2078   -4.3423 C.3       1 <0>        -0.1072
     13 C11        -7.4151    1.4393   -5.6691 C.3       1 <0>        -0.1072
     14 C12        -8.7094    0.6237   -5.6915 C.3       1 <0>        -0.1214
     15 C13        -8.3781   -0.8627   -5.5440 C.3       1 <0>        -0.1178
     16 C14        -7.6522   -1.0943   -4.2172 C.3       1 <0>        -0.1171
     17 N1         -3.4247   -0.4050   -3.9162 N.am      1 <0>        -0.7146
     18 C15        -3.5168   -0.0039   -5.1996 C.2       1 <0>         0.5118
     19 O1         -4.3074    0.8621   -5.5091 O.2       1 <0>        -0.5066
     20 C16        -2.6372   -0.6315   -6.2501 C.3       1 <0>         0.1418
     21 C17        -2.9110   -2.1355   -6.3123 C.3       1 <0>        -0.0442
     22 C18        -1.9473   -2.7822   -7.2738 C.2       1 <0>         0.0026
     23 C19        -1.1240   -3.8113   -6.9969 C.2       1 <0>        -0.0362
     24 N2         -0.4288   -4.0821   -8.1444 N.pl3     1 <0>        -0.5632
     25 C20        -0.8518   -3.2084   -9.0833 C.2       1 <0>         0.1805
     26 N3         -1.7636   -2.4374   -8.5569 N.2       1 <0>        -0.4697
     27 N4         -2.9265   -0.0282   -7.5533 N.am      1 <0>        -0.6808
     28 C21        -1.9869   -0.0283   -8.5195 C.2       1 <0>         0.5371
     29 O2         -0.9018   -0.5279   -8.3100 O.2       1 <0>        -0.5071
     30 C22        -2.2845    0.5924   -9.8601 C.3       1 <0>         0.0118
     31 C23        -3.0998   -0.3876  -10.7061 C.3       1 <0>        -0.0814
     32 C24        -4.4503   -0.5967  -10.0709 C.ar      1 <0>        -0.1159
     33 C25        -4.6678   -1.6899   -9.2533 C.ar      1 <0>        -0.0889
     34 C26        -5.9066   -1.8816   -8.6706 C.ar      1 <0>        -0.1215
     35 C27        -6.9277   -0.9799   -8.9051 C.ar      1 <0>        -0.0944
     36 C28        -6.7100    0.1138   -9.7220 C.ar      1 <0>        -0.1167
     37 C29        -5.4700    0.3079  -10.3012 C.ar      1 <0>        -0.1104
     38 N5         -1.0235    0.9012  -10.5475 N.4       1 <0>        -0.4927
     39 C30        -1.3073    1.6550  -11.7760 C.3       1 <0>        -0.0123
     40 C31        -0.0025    1.9019  -12.5358 C.3       1 <0>        -0.1155
     41 C32        -0.3113    2.5765  -13.8739 C.3       1 <0>        -0.1520
     42 C33         0.9076    2.8090  -11.7054 C.3       1 <0>        -0.1720
     43 O3         -3.4107   -1.3027   -1.2182 O.3       1 <0>        -0.5400
     44 O4         -2.4543    2.1754   -1.8604 O.3       1 <0>        -0.5510
     45 H3          1.4572    1.6467    1.1017 H         1 <0>         0.0559
     46 H4         -0.1513    1.9682    1.7930 H         1 <0>         0.0547
     47 H5          0.4067    0.2915    1.5793 H         1 <0>         0.0548
     48 H6         -0.2415    2.2903   -0.6329 H         1 <0>         0.0754
     49 H7          0.7581   -0.5899   -0.7816 H         1 <0>         0.0544
     50 H8          0.2651    0.4106   -2.1687 H         1 <0>         0.0497
     51 H9          1.6983    0.8586   -1.2130 H         1 <0>         0.0551
     52 H10        -1.5151   -0.3850    0.0908 H         1 <0>         0.0809
     53 H11        -2.1773    1.1987    0.5617 H         1 <0>         0.0678
     54 H12        -4.4307    1.2588   -3.1297 H         1 <0>         0.1107
     55 H13        -5.4749   -1.5788   -2.7216 H         1 <0>         0.0704
     56 H14        -6.2353   -0.1162   -2.0503 H         1 <0>         0.0723
     57 H15        -5.7170   -0.5915   -5.0191 H         1 <0>         0.0729
     58 H16        -7.3301    1.5207   -3.5181 H         1 <0>         0.0466
     59 H17        -5.7671    1.7889   -4.3264 H         1 <0>         0.0771
     60 H18        -7.6511    2.4983   -5.7742 H         1 <0>         0.0517
     61 H19        -6.7742    1.1264   -6.4934 H         1 <0>         0.0613
     62 H20        -9.3503    0.9366   -4.8672 H         1 <0>         0.0584
     63 H21        -9.2265    0.7887   -6.6367 H         1 <0>         0.0555
     64 H22        -9.3001   -1.4438   -5.5599 H         1 <0>         0.0571
     65 H23        -7.7371   -1.1756   -6.3683 H         1 <0>         0.0592
     66 H24        -7.4161   -2.1532   -4.1122 H         1 <0>         0.0554
     67 H25        -8.2931   -0.7814   -3.3930 H         1 <0>         0.0592
     68 H26        -2.7924   -1.0976   -3.6687 H         1 <0>         0.3933
     69 H27        -1.5908   -0.4629   -5.9959 H         1 <0>         0.1151
     70 H28        -2.7815   -2.5698   -5.3210 H         1 <0>         0.0886
     71 H29        -3.9325   -2.3051   -6.6526 H         1 <0>         0.0876
     72 H30         0.2424   -4.7726   -8.2614 H         1 <0>         0.4231
     73 H31        -1.0301   -4.3241   -6.0510 H         1 <0>         0.1730
     74 H32        -0.4972   -3.1588  -10.1023 H         1 <0>         0.1967
     75 H33        -3.7944    0.3714   -7.7209 H         1 <0>         0.4144
     76 H34        -2.8545    1.5104   -9.7170 H         1 <0>         0.1523
     77 H35        -3.2291    0.0187  -11.7093 H         1 <0>         0.0974
     78 H36        -2.5746   -1.3409  -10.7651 H         1 <0>         0.1090
     79 H37        -3.8700   -2.3944   -9.0700 H         1 <0>         0.1431
     80 H38        -6.0767   -2.7361   -8.0324 H         1 <0>         0.1203
     81 H39        -7.8958   -1.1301   -8.4504 H         1 <0>         0.1248
     82 H40        -7.5079    0.8181   -9.9055 H         1 <0>         0.1251
     83 H41        -5.2987    1.1644  -10.9365 H         1 <0>         0.1200
     84 H42        -0.4367    1.4545   -9.9413 H         1 <0>         0.4291
     85 H43        -1.9907    1.0830  -12.4036 H         1 <0>         0.1365
     86 H44        -1.7641    2.6106  -11.5185 H         1 <0>         0.1341
     87 H45         0.4988    0.9508  -12.7156 H         1 <0>         0.0945
     88 H46        -0.8126    3.5276  -13.6941 H         1 <0>         0.0684
     89 H47         0.6183    2.7523  -14.4153 H         1 <0>         0.0778
     90 H48        -0.9597    1.9302  -14.4656 H         1 <0>         0.0681
     91 H49         1.1276    2.3284  -10.7521 H         1 <0>         0.0524
     92 H50         1.8372    2.9849  -12.2467 H         1 <0>         0.0832
     93 H51         0.4063    3.7601  -11.5256 H         1 <0>         0.0728
     94 H52        -2.8526   -1.7712   -1.8539 H         1 <0>         0.3677
     95 H53        -3.0124    2.6439   -1.2247 H         1 <0>         0.3777
     96 H54        -0.5492    0.0420  -10.7822 H         1 <0>         0.4319
@<TRIPOS>BOND
     1    1    2 1
     2    1   45 1
     3    1   46 1
     4    1   47 1
     5    2    3 1
     6    2    4 1
     7    2   48 1
     8    3   49 1
     9    3   50 1
    10    3   51 1
    11    4    5 1
    12    4   52 1
    13    4   53 1
    14    5    6 1
    15    5    7 1
    16    5   44 1
    17    7    8 1
    18    7    9 1
    19    7   43 1
    20    9   10 1
    21    9   17 1
    22    9   54 1
    23   10   11 1
    24   10   55 1
    25   10   56 1
    26   11   16 1
    27   11   12 1
    28   11   57 1
    29   12   13 1
    30   12   58 1
    31   12   59 1
    32   13   14 1
    33   13   60 1
    34   13   61 1
    35   14   15 1
    36   14   62 1
    37   14   63 1
    38   15   16 1
    39   15   64 1
    40   15   65 1
    41   16   66 1
    42   16   67 1
    43   17   18 am
    44   17   68 1
    45   18   19 2
    46   18   20 1
    47   20   21 1
    48   20   27 1
    49   20   69 1
    50   21   70 1
    51   21   71 1
    52   21   22 1
    53   22   23 2
    54   22   26 1
    55   23   24 1
    56   23   73 1
    57   24   25 1
    58   24   72 1
    59   25   74 1
    60   25   26 2
    61   27   28 am
    62   27   75 1
    63   28   29 2
    64   28   30 1
    65   30   31 1
    66   30   38 1
    67   30   76 1
    68   31   32 1
    69   31   77 1
    70   31   78 1
    71   32   37 ar
    72   32   33 ar
    73   33   34 ar
    74   33   79 1
    75   34   35 ar
    76   34   80 1
    77   35   36 ar
    78   35   81 1
    79   36   37 ar
    80   36   82 1
    81   37   83 1
    82   38   39 1
    83   38   84 1
    84   38   96 1
    85   39   40 1
    86   39   85 1
    87   39   86 1
    88   40   41 1
    89   40   42 1
    90   40   87 1
    91   41   88 1
    92   41   89 1
    93   41   90 1
    94   42   91 1
    95   42   92 1
    96   42   93 1
    97   43   94 1
    98   44   95 1
@<TRIPOS>MOLECULE
CHEMBL73278__11
   97    99     0     0     0
SMALL
USER_CHARGES

@<TRIPOS>ATOM
      1 C1          1.0997    2.3696    2.3341 C.3       1 <0>        -0.1524
      2 C2          1.1435    0.8698    2.0352 C.3       1 <0>        -0.0939
      3 C3          1.4524    0.1021    3.3222 C.3       1 <0>        -0.1465
      4 C4         -0.2115    0.4195    1.4856 C.3       1 <0>        -0.1481
      5 C5         -0.1303   -1.0509    1.0703 C.3       1 <0>         0.0797
      6 H1          0.2168   -1.6479    1.9136 H         1 <0>         0.0954
      7 C6         -1.5155   -1.5359    0.6378 C.3       1 <0>         0.0637
      8 H2         -1.8626   -0.9388   -0.2054 H         1 <0>         0.1203
      9 C7         -1.4343   -3.0062    0.2226 C.3       1 <0>         0.1179
     10 C8         -2.8194   -3.4912   -0.2099 C.3       1 <0>        -0.1271
     11 C9         -2.7155   -4.9218   -0.7424 C.3       1 <0>        -0.0738
     12 C10        -1.8674   -4.9317   -2.0158 C.3       1 <0>        -0.1109
     13 C11        -1.7635   -6.3623   -2.5483 C.3       1 <0>        -0.1095
     14 C12        -3.1638   -6.8918   -2.8641 C.3       1 <0>        -0.1262
     15 C13        -4.0119   -6.8820   -1.5907 C.3       1 <0>        -0.1221
     16 C14        -4.1158   -5.4514   -1.0582 C.3       1 <0>        -0.1200
     17 N1         -0.9677   -3.8087    1.3559 N.am      1 <0>        -0.7080
     18 C15        -0.3459   -4.9845    1.1385 C.2       1 <0>         0.5094
     19 O1         -0.1726   -5.3782    0.0045 O.2       1 <0>        -0.4901
     20 C16         0.1340   -5.8100    2.3043 C.3       1 <0>         0.1240
     21 C17        -1.0563   -6.1799    3.1916 C.3       1 <0>        -0.0796
     22 C18        -0.5573   -6.8313    4.4557 C.2       1 <0>         0.0303
     23 C19        -0.0763   -6.1917    5.5388 C.2       1 <0>         0.0659
     24 N2          0.2606   -7.1555    6.4506 N.pl3     1 <0>        -0.4939
     25 C20        -0.0264   -8.3512    5.8925 C.cat     1 <0>         0.2982
     26 N3         -0.5199   -8.1493    4.7014 N.pl3     1 <0>        -0.4848
     27 N4          0.7714   -7.0321    1.8079 N.am      1 <0>        -0.6757
     28 C21         1.6726   -7.6804    2.5721 C.2       1 <0>         0.5065
     29 O2          2.0207   -7.2066    3.6329 O.2       1 <0>        -0.5335
     30 C22         2.2478   -8.9938    2.1084 C.3       1 <0>         0.0010
     31 C23         1.1690  -10.0765    2.1793 C.3       1 <0>        -0.0875
     32 C24         0.1240   -9.8140    1.1257 C.ar      1 <0>        -0.1304
     33 C25        -1.0253   -9.1179    1.4504 C.ar      1 <0>        -0.1199
     34 C26        -1.9838   -8.8771    0.4839 C.ar      1 <0>        -0.1045
     35 C27        -1.7929   -9.3322   -0.8074 C.ar      1 <0>        -0.0821
     36 C28        -0.6432  -10.0276   -1.1323 C.ar      1 <0>        -0.0966
     37 C29         0.3173  -10.2646   -0.1668 C.ar      1 <0>        -0.0968
     38 N5          3.3744   -9.3678    2.9739 N.4       1 <0>        -0.4936
     39 C30         4.0277  -10.5684    2.4358 C.3       1 <0>        -0.0162
     40 C31         5.1539  -11.0013    3.3767 C.3       1 <0>        -0.1131
     41 C32         5.7523  -12.3200    2.8830 C.3       1 <0>        -0.1551
     42 C33         6.2410   -9.9250    3.4001 C.3       1 <0>        -0.1742
     43 O3         -2.4299   -1.3984    1.7273 O.3       1 <0>        -0.5353
     44 O4          0.7841   -1.1883   -0.0191 O.3       1 <0>        -0.5529
     45 H3          2.0651    2.6904    2.7256 H         1 <0>         0.0574
     46 H4          0.8796    2.9165    1.4172 H         1 <0>         0.0569
     47 H5          0.3233    2.5705    3.0722 H         1 <0>         0.0555
     48 H6          1.9199    0.6689    1.2971 H         1 <0>         0.0758
     49 H7          1.4836   -0.9664    3.1093 H         1 <0>         0.0459
     50 H8          2.4178    0.4229    3.7137 H         1 <0>         0.0565
     51 H9          0.6760    0.3030    4.0603 H         1 <0>         0.0542
     52 H10        -0.9736    0.5379    2.2559 H         1 <0>         0.0814
     53 H11        -0.4726    1.0277    0.6196 H         1 <0>         0.0704
     54 H12        -0.7368   -3.1111   -0.6085 H         1 <0>         0.1152
     55 H13        -3.4951   -3.4700    0.6451 H         1 <0>         0.0722
     56 H14        -3.2045   -2.8389   -0.9937 H         1 <0>         0.0789
     57 H15        -2.2482   -5.5567    0.0103 H         1 <0>         0.0656
     58 H16        -2.3347   -4.2968   -2.7686 H         1 <0>         0.0522
     59 H17        -0.8698   -4.5544   -1.7909 H         1 <0>         0.0767
     60 H18        -1.1593   -6.3693   -3.4555 H         1 <0>         0.0553
     61 H19        -1.2962   -6.9971   -1.7956 H         1 <0>         0.0597
     62 H20        -3.6311   -6.2570   -3.6168 H         1 <0>         0.0643
     63 H21        -3.0898   -7.9110   -3.2435 H         1 <0>         0.0572
     64 H22        -5.0095   -7.2592   -1.8157 H         1 <0>         0.0615
     65 H23        -3.5446   -7.5168   -0.8380 H         1 <0>         0.0568
     66 H24        -4.7200   -5.4443   -0.1510 H         1 <0>         0.0562
     67 H25        -4.5831   -4.8165   -1.8110 H         1 <0>         0.0645
     68 H26        -1.1064   -3.4938    2.2629 H         1 <0>         0.3932
     69 H27         0.8549   -5.2343    2.8849 H         1 <0>         0.1345
     70 H28        -1.6156   -5.2789    3.4435 H         1 <0>         0.1345
     71 H29        -1.7059   -6.8734    2.6576 H         1 <0>         0.1117
     72 H30         0.6356   -7.0072    7.3328 H         1 <0>         0.4710
     73 H31         0.0245   -5.1238    5.6639 H         1 <0>         0.2279
     74 H32         0.1238   -9.3148    6.3566 H         1 <0>         0.2655
     75 H33         0.5448   -7.3747    0.9291 H         1 <0>         0.4300
     76 H34         2.5965   -8.8951    1.0804 H         1 <0>         0.1738
     77 H35         1.6220  -11.0527    2.0065 H         1 <0>         0.1228
     78 H36         0.7033  -10.0613    3.1647 H         1 <0>         0.0821
     79 H37        -1.1744   -8.7623    2.4592 H         1 <0>         0.0912
     80 H38        -2.8821   -8.3339    0.7377 H         1 <0>         0.1324
     81 H39        -2.5422   -9.1447   -1.5623 H         1 <0>         0.1398
     82 H40        -0.4942  -10.3834   -2.1410 H         1 <0>         0.1382
     83 H41         1.2172  -10.8046   -0.4215 H         1 <0>         0.1318
     84 H42         4.0391   -8.6094    3.0071 H         1 <0>         0.4371
     85 H43         3.2967  -11.3724    2.3500 H         1 <0>         0.1387
     86 H44         4.4413  -10.3470    1.4519 H         1 <0>         0.1410
     87 H45         4.7553  -11.1370    4.3821 H         1 <0>         0.0938
     88 H46         6.1509  -12.1843    1.8776 H         1 <0>         0.0715
     89 H47         6.5546  -12.6284    3.5534 H         1 <0>         0.0827
     90 H48         4.9778  -13.0868    2.8664 H         1 <0>         0.0695
     91 H49         6.6396   -9.7893    2.3947 H         1 <0>         0.0761
     92 H50         5.8146   -8.9855    3.7518 H         1 <0>         0.0497
     93 H51         7.0433  -10.2334    4.0704 H         1 <0>         0.0879
     94 H52        -2.1833   -1.9039    2.5139 H         1 <0>         0.3634
     95 H53         0.5376   -0.6828   -0.8058 H         1 <0>         0.3819
     96 H54         3.0347   -9.5583    3.9047 H         1 <0>         0.4259
     97 H55        -0.8118   -8.8431    4.0895 H         1 <0>         0.4525
@<TRIPOS>BOND
     1    1    2 1
     2    1   45 1
     3    1   46 1
     4    1   47 1
     5    2    3 1
     6    2    4 1
     7    2   48 1
     8    3   49 1
     9    3   50 1
    10    3   51 1
    11    4    5 1
    12    4   52 1
    13    4   53 1
    14    5    6 1
    15    5    7 1
    16    5   44 1
    17    7    8 1
    18    7    9 1
    19    7   43 1
    20    9   10 1
    21    9   17 1
    22    9   54 1
    23   10   11 1
    24   10   55 1
    25   10   56 1
    26   11   16 1
    27   11   12 1
    28   11   57 1
    29   12   13 1
    30   12   58 1
    31   12   59 1
    32   13   14 1
    33   13   60 1
    34   13   61 1
    35   14   15 1
    36   14   62 1
    37   14   63 1
    38   15   16 1
    39   15   64 1
    40   15   65 1
    41   16   66 1
    42   16   67 1
    43   17   18 am
    44   17   68 1
    45   18   19 2
    46   18   20 1
    47   20   21 1
    48   20   27 1
    49   20   69 1
    50   21   70 1
    51   21   71 1
    52   21   22 1
    53   22   23 2
    54   22   26 1
    55   23   24 1
    56   23   73 1
    57   24   25 1
    58   24   72 1
    59   25   74 1
    60   25   26 2
    61   26   97 1
    62   27   28 am
    63   27   75 1
    64   28   29 2
    65   28   30 1
    66   30   31 1
    67   30   38 1
    68   30   76 1
    69   31   32 1
    70   31   77 1
    71   31   78 1
    72   32   37 ar
    73   32   33 ar
    74   33   34 ar
    75   33   79 1
    76   34   35 ar
    77   34   80 1
    78   35   36 ar
    79   35   81 1
    80   36   37 ar
    81   36   82 1
    82   37   83 1
    83   38   39 1
    84   38   84 1
    85   38   96 1
    86   39   40 1
    87   39   85 1
    88   39   86 1
    89   40   41 1
    90   40   42 1
    91   40   87 1
    92   41   88 1
    93   41   89 1
    94   41   90 1
    95   42   91 1
    96   42   92 1
    97   42   93 1
    98   43   94 1
    99   44   95 1
@<TRIPOS>MOLECULE
CHEMBL73278__12
   96    98     0     0     0
SMALL
USER_CHARGES

@<TRIPOS>ATOM
      1 C1         -0.3113    0.9134    3.2333 C.3       1 <0>        -0.1506
      2 C2         -0.0772   -0.4824    2.6522 C.3       1 <0>        -0.0937
      3 C3          0.0195   -1.4994    3.7912 C.3       1 <0>        -0.1485
      4 C4         -1.2430   -0.8546    1.7338 C.3       1 <0>        -0.1464
      5 C5         -0.9505   -2.1948    1.0561 C.3       1 <0>         0.0776
      6 H1         -0.7381   -2.9473    1.8155 H         1 <0>         0.0991
      7 C6         -2.1672   -2.6276    0.2355 C.3       1 <0>         0.0655
      8 H2         -2.3796   -1.8751   -0.5239 H         1 <0>         0.1163
      9 C7         -1.8747   -3.9677   -0.4422 C.3       1 <0>         0.1182
     10 C8         -3.0914   -4.4005   -1.2628 C.3       1 <0>        -0.1250
     11 C9         -2.7557   -5.6755   -2.0391 C.3       1 <0>        -0.0761
     12 C10        -1.6616   -5.3745   -3.0653 C.3       1 <0>        -0.1086
     13 C11        -1.3258   -6.6495   -3.8416 C.3       1 <0>        -0.1068
     14 C12        -2.5779   -7.1517   -4.5634 C.3       1 <0>        -0.1239
     15 C13        -3.6720   -7.4527   -3.5371 C.3       1 <0>        -0.1143
     16 C14        -4.0077   -6.1777   -2.7609 C.3       1 <0>        -0.1187
     17 N1         -1.5893   -4.9791    0.5785 N.am      1 <0>        -0.7125
     18 C15        -0.8371   -6.0541    0.2702 C.2       1 <0>         0.5104
     19 O1         -0.3965   -6.1842   -0.8523 O.2       1 <0>        -0.5062
     20 C16        -0.5435   -7.0945    1.3201 C.3       1 <0>         0.1263
     21 C17        -1.8572   -7.6950    1.8245 C.3       1 <0>        -0.0519
     22 C18        -1.5758   -8.6184    2.9817 C.2       1 <0>        -0.0286
     23 C19        -1.4289   -8.2656    4.2730 C.2       1 <0>         0.0020
     24 N2         -1.1912   -9.3785    4.9828 N.2       1 <0>        -0.4769
     25 C20        -1.1852  -10.4077    4.1805 C.2       1 <0>         0.1795
     26 N3         -1.4264   -9.9778    2.9232 N.pl3     1 <0>        -0.5711
     27 N4          0.2864   -8.1532    0.7399 N.am      1 <0>        -0.6824
     28 C21         1.3344   -8.6432    1.4314 C.2       1 <0>         0.5114
     29 O2          1.6331   -8.1601    2.5030 O.2       1 <0>        -0.5057
     30 C22         2.1349   -9.7914    0.8731 C.3       1 <0>         0.0110
     31 C23         2.9885   -9.2970   -0.2965 C.3       1 <0>        -0.0933
     32 C24         3.6949  -10.4664   -0.9325 C.ar      1 <0>        -0.1282
     33 C25         4.9428  -10.8503   -0.4784 C.ar      1 <0>        -0.1399
     34 C26         5.5907  -11.9230   -1.0618 C.ar      1 <0>        -0.1049
     35 C27         4.9906  -12.6121   -2.0990 C.ar      1 <0>        -0.1005
     36 C28         3.7422  -12.2288   -2.5525 C.ar      1 <0>        -0.1044
     37 C29         3.0925  -11.1588   -1.9662 C.ar      1 <0>        -0.1022
     38 N5          3.0086  -10.3348    1.9216 N.4       1 <0>        -0.4937
     39 C30         2.1879  -10.9561    2.9696 C.3       1 <0>        -0.0189
     40 C31         3.0979  -11.6414    3.9909 C.3       1 <0>        -0.1117
     41 C32         3.9166  -10.5844    4.7347 C.3       1 <0>        -0.1683
     42 C33         2.2440  -12.4225    4.9917 C.3       1 <0>        -0.1521
     43 O3         -3.2982   -2.7666    1.0977 O.3       1 <0>        -0.5393
     44 O4          0.1806   -2.0557    0.1939 O.3       1 <0>        -0.5513
     45 H3          0.5191    1.1786    3.8876 H         1 <0>         0.0561
     46 H4         -0.3803    1.6379    2.4219 H         1 <0>         0.0546
     47 H5         -1.2397    0.9182    3.8045 H         1 <0>         0.0551
     48 H6          0.8511   -0.4872    2.0811 H         1 <0>         0.0749
     49 H7         -0.9089   -1.4946    4.3624 H         1 <0>         0.0550
     50 H8          0.1863   -2.4938    3.3772 H         1 <0>         0.0501
     51 H9          0.8500   -1.2343    4.4455 H         1 <0>         0.0557
     52 H10        -2.1570   -0.9367    2.3220 H         1 <0>         0.0814
     53 H11        -1.3678   -0.0829    0.9742 H         1 <0>         0.0677
     54 H12        -1.0120   -3.8617   -1.0999 H         1 <0>         0.1115
     55 H13        -3.9308   -4.5924   -0.5944 H         1 <0>         0.0717
     56 H14        -3.3580   -3.6085   -1.9627 H         1 <0>         0.0742
     57 H15        -2.4040   -6.4404   -1.3467 H         1 <0>         0.0693
     58 H16        -2.0133   -4.6096   -3.7577 H         1 <0>         0.0490
     59 H17        -0.7696   -5.0167   -2.5511 H         1 <0>         0.0779
     60 H18        -0.5464   -6.4351   -4.5728 H         1 <0>         0.0539
     61 H19        -0.9741   -7.4144   -3.1493 H         1 <0>         0.0568
     62 H20        -2.9296   -6.3868   -5.2557 H         1 <0>         0.0607
     63 H21        -2.3387   -8.0600   -5.1165 H         1 <0>         0.0566
     64 H22        -4.5640   -7.8105   -4.0514 H         1 <0>         0.0592
     65 H23        -3.3203   -8.2176   -2.8448 H         1 <0>         0.0532
     66 H24        -4.7872   -6.3921   -2.0297 H         1 <0>         0.0566
     67 H25        -4.3594   -5.4128   -3.4532 H         1 <0>         0.0613
     68 H26        -1.9416   -4.8751    1.4762 H         1 <0>         0.3948
     69 H27        -0.0126   -6.6315    2.1519 H         1 <0>         0.1357
     70 H28        -2.5207   -6.8944    2.1515 H         1 <0>         0.1097
     71 H29        -2.3331   -8.2554    1.0198 H         1 <0>         0.0868
     72 H30        -1.4916   -7.2623    4.6678 H         1 <0>         0.1693
     73 H31        -1.0184  -11.4336    4.4738 H         1 <0>         0.2057
     74 H32         0.0817   -8.5015   -0.1419 H         1 <0>         0.4161
     75 H33         1.4576  -10.5710    0.5245 H         1 <0>         0.1605
     76 H34         2.3484   -8.8139   -1.0347 H         1 <0>         0.1280
     77 H35         3.7258   -8.5820    0.0686 H         1 <0>         0.1064
     78 H36         5.4117  -10.3120    0.3320 H         1 <0>         0.1226
     79 H37         6.5660  -12.2225   -0.7075 H         1 <0>         0.1336
     80 H38         5.4971  -13.4498   -2.5553 H         1 <0>         0.1336
     81 H39         3.2735  -12.7670   -3.3631 H         1 <0>         0.1338
     82 H40         2.1156  -10.8616   -2.3181 H         1 <0>         0.1303
     83 H41         3.6238  -11.0272    1.5214 H         1 <0>         0.4302
     84 H42         1.5943  -10.1899    3.4683 H         1 <0>         0.1437
     85 H43         1.5241  -11.6952    2.5208 H         1 <0>         0.1256
     86 H44         3.7713  -12.3263    3.4756 H         1 <0>         0.0915
     87 H45         4.5649  -11.0726    5.4623 H         1 <0>         0.0830
     88 H46         4.5250  -10.0279    4.0217 H         1 <0>         0.0492
     89 H47         3.2432   -9.8995    5.2500 H         1 <0>         0.0768
     90 H48         1.7355  -13.2377    4.4771 H         1 <0>         0.0657
     91 H49         2.8834  -12.8299    5.7748 H         1 <0>         0.0797
     92 H50         1.5047  -11.7562    5.4363 H         1 <0>         0.0722
     93 H51        -3.1798   -3.4213    1.7994 H         1 <0>         0.3681
     94 H52         0.0621   -1.4010   -0.5078 H         1 <0>         0.3779
     95 H53         3.5573   -9.5888    2.3222 H         1 <0>         0.4328
     96 H54        -1.4818  -10.5292    2.1271 H         1 <0>         0.4140
@<TRIPOS>BOND
     1    1    2 1
     2    1   45 1
     3    1   46 1
     4    1   47 1
     5    2    3 1
     6    2    4 1
     7    2   48 1
     8    3   49 1
     9    3   50 1
    10    3   51 1
    11    4    5 1
    12    4   52 1
    13    4   53 1
    14    5    6 1
    15    5    7 1
    16    5   44 1
    17    7    8 1
    18    7    9 1
    19    7   43 1
    20    9   10 1
    21    9   17 1
    22    9   54 1
    23   10   11 1
    24   10   55 1
    25   10   56 1
    26   11   16 1
    27   11   12 1
    28   11   57 1
    29   12   13 1
    30   12   58 1
    31   12   59 1
    32   13   14 1
    33   13   60 1
    34   13   61 1
    35   14   15 1
    36   14   62 1
    37   14   63 1
    38   15   16 1
    39   15   64 1
    40   15   65 1
    41   16   66 1
    42   16   67 1
    43   17   18 am
    44   17   68 1
    45   18   19 2
    46   18   20 1
    47   20   21 1
    48   20   27 1
    49   20   69 1
    50   21   70 1
    51   21   71 1
    52   21   22 1
    53   22   23 2
    54   22   26 1
    55   23   24 1
    56   23   72 1
    57   24   25 2
    58   25   73 1
    59   25   26 1
    60   26   96 1
    61   27   28 am
    62   27   74 1
    63   28   29 2
    64   28   30 1
    65   30   31 1
    66   30   38 1
    67   30   75 1
    68   31   32 1
    69   31   76 1
    70   31   77 1
    71   32   37 ar
    72   32   33 ar
    73   33   34 ar
    74   33   78 1
    75   34   35 ar
    76   34   79 1
    77   35   36 ar
    78   35   80 1
    79   36   37 ar
    80   36   81 1
    81   37   82 1
    82   38   39 1
    83   38   83 1
    84   38   95 1
    85   39   40 1
    86   39   84 1
    87   39   85 1
    88   40   41 1
    89   40   42 1
    90   40   86 1
    91   41   87 1
    92   41   88 1
    93   41   89 1
    94   42   90 1
    95   42   91 1
    96   42   92 1
    97   43   93 1
    98   44   94 1
@<TRIPOS>MOLECULE
CHEMBL73278__13
   96    98     0     0     0
SMALL
USER_CHARGES

@<TRIPOS>ATOM
      1 C1          0.9007   -0.1744   -1.2029 C.3       1 <0>        -0.1508
      2 C2         -0.0029   -0.0438    0.0248 C.3       1 <0>        -0.0946
      3 C3         -1.3063   -0.8075   -0.2177 C.3       1 <0>        -0.1477
      4 C4          0.7098   -0.6265    1.2469 C.3       1 <0>        -0.1462
      5 C5         -0.1358   -0.3774    2.4973 C.3       1 <0>         0.0782
      6 H1         -1.1354   -0.7852    2.3472 H         1 <0>         0.0978
      7 C6          0.5184   -1.0606    3.6999 C.3       1 <0>         0.0655
      8 H2          1.5180   -0.6527    3.8501 H         1 <0>         0.1172
      9 C7         -0.3272   -0.8114    4.9504 C.3       1 <0>         0.1175
     10 C8          0.3270   -1.4946    6.1529 C.3       1 <0>        -0.1241
     11 C9         -0.4489   -1.1428    7.4238 C.3       1 <0>        -0.0765
     12 C10        -0.3283    0.3580    7.6959 C.3       1 <0>        -0.1093
     13 C11        -1.1042    0.7098    8.9668 C.3       1 <0>        -0.1087
     14 C12        -0.5270   -0.0708   10.1492 C.3       1 <0>        -0.1241
     15 C13        -0.6475   -1.5716    9.8772 C.3       1 <0>        -0.1144
     16 C14         0.1283   -1.9235    8.6063 C.3       1 <0>        -0.1178
     17 N1         -1.6707   -1.3596    4.7485 N.am      1 <0>        -0.7146
     18 C15        -2.7142   -0.8571    5.4379 C.2       1 <0>         0.5115
     19 O1         -2.5409    0.0488    6.2254 O.2       1 <0>        -0.4947
     20 C16        -4.0962   -1.4211    5.2303 C.3       1 <0>         0.1295
     21 C17        -4.0990   -2.9087    5.5877 C.3       1 <0>        -0.0709
     22 C18        -5.4467   -3.5005    5.2643 C.2       1 <0>         0.0430
     23 C19        -5.8383   -3.9675    4.0635 C.2       1 <0>         0.0532
     24 N2         -7.1246   -4.4115    4.2116 N.pl3     1 <0>        -0.4967
     25 C20        -7.4745   -4.2002    5.4987 C.cat     1 <0>         0.3095
     26 N3         -6.4643   -3.6597    6.1235 N.pl3     1 <0>        -0.4723
     27 N4         -5.0474   -0.7108    6.0887 N.am      1 <0>        -0.7188
     28 C21        -6.3509   -0.6573    5.7500 C.2       1 <0>         0.5182
     29 O2         -6.7363   -1.1972    4.7347 O.2       1 <0>        -0.5132
     30 C22        -7.3294    0.0734    6.6330 C.3       1 <0>         0.0773
     31 C23        -7.1895    1.5807    6.4112 C.3       1 <0>        -0.0801
     32 C24        -8.0791    2.3158    7.3804 C.ar      1 <0>        -0.0984
     33 C25        -9.3832    2.6140    7.0320 C.ar      1 <0>        -0.1217
     34 C26       -10.1992    3.2882    7.9210 C.ar      1 <0>        -0.1119
     35 C27        -9.7113    3.6639    9.1586 C.ar      1 <0>        -0.1139
     36 C28        -8.4075    3.3649    9.5074 C.ar      1 <0>        -0.1130
     37 C29        -7.5928    2.6869    8.6200 C.ar      1 <0>        -0.1132
     38 N5         -8.6973   -0.3457    6.2996 N.3       1 <0>        -0.6674
     39 C30        -9.1103   -1.4939    7.1175 C.3       1 <0>         0.0664
     40 C31       -10.4795   -1.9889    6.6474 C.3       1 <0>        -0.0958
     41 C32       -10.8537   -3.2588    7.4143 C.3       1 <0>        -0.1501
     42 C33       -11.5299   -0.9074    6.9083 C.3       1 <0>        -0.1534
     43 O3          0.6088   -2.4661    3.4582 O.3       1 <0>        -0.5388
     44 O4         -0.2262    1.0281    2.7390 O.3       1 <0>        -0.5501
     45 H3          1.1943   -1.2165   -1.3288 H         1 <0>         0.0545
     46 H4          0.3609    0.1606   -2.0887 H         1 <0>         0.0565
     47 H5          1.7907    0.4398   -1.0660 H         1 <0>         0.0551
     48 H6         -0.2258    1.0084    0.2016 H         1 <0>         0.0762
     49 H7         -1.0834   -1.8597   -0.3945 H         1 <0>         0.0535
     50 H8         -1.9500   -0.7145    0.6570 H         1 <0>         0.0496
     51 H9         -1.8140   -0.3924   -1.0883 H         1 <0>         0.0560
     52 H10         0.8483   -1.6989    1.1096 H         1 <0>         0.0804
     53 H11         1.6815   -0.1467    1.3638 H         1 <0>         0.0682
     54 H12        -0.3962    0.2607    5.1347 H         1 <0>         0.1129
     55 H13         0.3157   -2.5749    6.0076 H         1 <0>         0.0705
     56 H14         1.3572   -1.1518    6.2495 H         1 <0>         0.0748
     57 H15        -1.4987   -1.4051    7.2929 H         1 <0>         0.0685
     58 H16         0.7215    0.6203    7.8267 H         1 <0>         0.0495
     59 H17        -0.7395    0.9142    6.8534 H         1 <0>         0.0783
     60 H18        -1.0183    1.7790    9.1606 H         1 <0>         0.0556
     61 H19        -2.1540    0.4475    8.8359 H         1 <0>         0.0586
     62 H20         0.5228    0.1915   10.2801 H         1 <0>         0.0606
     63 H21        -1.0797    0.1798   11.0546 H         1 <0>         0.0576
     64 H22        -0.2363   -2.1278   10.7196 H         1 <0>         0.0589
     65 H23        -1.6974   -1.8340    9.7463 H         1 <0>         0.0531
     66 H24         0.0424   -2.9926    8.4125 H         1 <0>         0.0552
     67 H25         1.1782   -1.6611    8.7372 H         1 <0>         0.0616
     68 H26        -1.8093   -2.0842    4.1187 H         1 <0>         0.3919
     69 H27        -4.3860   -1.2976    4.1868 H         1 <0>         0.1245
     70 H28        -3.3290   -3.4222    5.0119 H         1 <0>         0.1228
     71 H29        -3.8962   -3.0270    6.6522 H         1 <0>         0.1052
     72 H30        -7.6810   -4.8046    3.5210 H         1 <0>         0.4660
     73 H31        -5.2506   -3.9875    3.1576 H         1 <0>         0.2221
     74 H32        -8.4305   -4.4423    5.9390 H         1 <0>         0.2557
     75 H33        -4.7392   -0.2790    6.9007 H         1 <0>         0.4156
     76 H34        -7.1219   -0.1611    7.6771 H         1 <0>         0.0719
     77 H35        -6.1531    1.8771    6.5728 H         1 <0>         0.0893
     78 H36        -7.4828    1.8266    5.3906 H         1 <0>         0.0904
     79 H37        -9.7643    2.3205    6.0650 H         1 <0>         0.1238
     80 H38       -11.2178    3.5218    7.6485 H         1 <0>         0.1264
     81 H39       -10.3486    4.1914    9.8529 H         1 <0>         0.1261
     82 H40        -8.0262    3.6588   10.4742 H         1 <0>         0.1259
     83 H41        -6.5753    2.4500    8.8940 H         1 <0>         0.1222
     84 H42        -9.3451    0.4213    6.3999 H         1 <0>         0.3617
     85 H43        -8.3790   -2.2956    7.0140 H         1 <0>         0.0437
     86 H44        -9.1725   -1.1917    8.1629 H         1 <0>         0.0397
     87 H45       -10.4402   -2.2072    5.5802 H         1 <0>         0.0803
     88 H46       -10.8931   -3.0405    8.4815 H         1 <0>         0.0607
     89 H47       -11.8292   -3.6114    7.0794 H         1 <0>         0.0668
     90 H48       -10.1054   -4.0293    7.2285 H         1 <0>         0.0430
     91 H49       -11.5693   -0.6891    7.9755 H         1 <0>         0.0560
     92 H50       -11.2634   -0.0027    6.3619 H         1 <0>         0.0575
     93 H51       -12.5054   -1.2600    6.5734 H         1 <0>         0.0626
     94 H52        -0.2454   -2.8964    3.3154 H         1 <0>         0.3654
     95 H53         0.6279    1.4584    2.8818 H         1 <0>         0.3789
     96 H54        -6.4519   -3.4107    7.0609 H         1 <0>         0.4561
@<TRIPOS>BOND
     1    1    2 1
     2    1   45 1
     3    1   46 1
     4    1   47 1
     5    2    3 1
     6    2    4 1
     7    2   48 1
     8    3   49 1
     9    3   50 1
    10    3   51 1
    11    4    5 1
    12    4   52 1
    13    4   53 1
    14    5    6 1
    15    5    7 1
    16    5   44 1
    17    7    8 1
    18    7    9 1
    19    7   43 1
    20    9   10 1
    21    9   17 1
    22    9   54 1
    23   10   11 1
    24   10   55 1
    25   10   56 1
    26   11   16 1
    27   11   12 1
    28   11   57 1
    29   12   13 1
    30   12   58 1
    31   12   59 1
    32   13   14 1
    33   13   60 1
    34   13   61 1
    35   14   15 1
    36   14   62 1
    37   14   63 1
    38   15   16 1
    39   15   64 1
    40   15   65 1
    41   16   66 1
    42   16   67 1
    43   17   18 am
    44   17   68 1
    45   18   19 2
    46   18   20 1
    47   20   21 1
    48   20   27 1
    49   20   69 1
    50   21   70 1
    51   21   71 1
    52   21   22 1
    53   22   23 2
    54   22   26 1
    55   23   24 1
    56   23   73 1
    57   24   25 1
    58   24   72 1
    59   25   74 1
    60   25   26 2
    61   26   96 1
    62   27   28 am
    63   27   75 1
    64   28   29 2
    65   28   30 1
    66   30   31 1
    67   30   38 1
    68   30   76 1
    69   31   32 1
    70   31   77 1
    71   31   78 1
    72   32   37 ar
    73   32   33 ar
    74   33   34 ar
    75   33   79 1
    76   34   35 ar
    77   34   80 1
    78   35   36 ar
    79   35   81 1
    80   36   37 ar
    81   36   82 1
    82   37   83 1
    83   38   39 1
    84   38   84 1
    85   39   40 1
    86   39   85 1
    87   39   86 1
    88   40   41 1
    89   40   42 1
    90   40   87 1
    91   41   88 1
    92   41   89 1
    93   41   90 1
    94   42   91 1
    95   42   92 1
    96   42   93 1
    97   43   94 1
    98   44   95 1
@<TRIPOS>MOLECULE
CHEMBL73278__14
   96    98     0     0     0
SMALL
USER_CHARGES

@<TRIPOS>ATOM
      1 C1          2.6552   -5.1539   -1.0602 C.3       1 <0>        -0.1505
      2 C2          1.8498   -4.2946   -2.0368 C.3       1 <0>        -0.0939
      3 C3          1.2850   -5.1801   -3.1493 C.3       1 <0>        -0.1482
      4 C4          0.6988   -3.6171   -1.2904 C.3       1 <0>        -0.1462
      5 C5         -0.0162   -2.6444   -2.2304 C.3       1 <0>         0.0782
      6 H1         -0.3377   -3.1751   -3.1265 H         1 <0>         0.0986
      7 C6         -1.2369   -2.0544   -1.5214 C.3       1 <0>         0.0658
      8 H2         -0.9154   -1.5237   -0.6253 H         1 <0>         0.1154
      9 C7         -1.9519   -1.0817   -2.4614 C.3       1 <0>         0.1187
     10 C8         -3.1727   -0.4917   -1.7525 C.3       1 <0>        -0.1242
     11 C9         -3.8156    0.5723   -2.6443 C.3       1 <0>        -0.0768
     12 C10        -2.8460    1.7425   -2.8221 C.3       1 <0>        -0.1075
     13 C11        -3.4889    2.8065   -3.7140 C.3       1 <0>        -0.1071
     14 C12        -4.7788    3.3076   -3.0613 C.3       1 <0>        -0.1233
     15 C13        -5.7483    2.1374   -2.8835 C.3       1 <0>        -0.1151
     16 C14        -5.1054    1.0734   -1.9916 C.3       1 <0>        -0.1179
     17 N1         -2.3840   -1.7950   -3.6658 N.am      1 <0>        -0.7156
     18 C15        -2.5668   -1.1215   -4.8188 C.2       1 <0>         0.5061
     19 O1         -2.3735    0.0751   -4.8593 O.2       1 <0>        -0.5068
     20 C16        -3.0113   -1.8553   -6.0578 C.3       1 <0>         0.1331
     21 C17        -4.3652   -2.5194   -5.7990 C.3       1 <0>        -0.0400
     22 C18        -4.7407   -3.3726   -6.9831 C.2       1 <0>        -0.0016
     23 C19        -5.0408   -4.6850   -6.9495 C.2       1 <0>        -0.0332
     24 N2         -5.3213   -5.0602   -8.2356 N.pl3     1 <0>        -0.5619
     25 C20        -5.1827   -3.9633   -9.0110 C.2       1 <0>         0.1790
     26 N3         -4.8402   -2.9566   -8.2544 N.2       1 <0>        -0.4898
     27 N4         -3.1364   -0.9078   -7.1681 N.am      1 <0>        -0.6624
     28 C21        -2.4062   -1.0812   -8.2875 C.2       1 <0>         0.5298
     29 O2         -1.7082   -2.0655   -8.4098 O.2       1 <0>        -0.5268
     30 C22        -2.4569   -0.0521   -9.3872 C.3       1 <0>         0.0150
     31 C23        -1.4998    1.0949   -9.0569 C.3       1 <0>        -0.0928
     32 C24        -1.6404    2.1806  -10.0926 C.ar      1 <0>        -0.1247
     33 C25        -0.8572    2.1551  -11.2314 C.ar      1 <0>        -0.1410
     34 C26        -0.9861    3.1509  -12.1814 C.ar      1 <0>        -0.1065
     35 C27        -1.8987    4.1720  -11.9929 C.ar      1 <0>        -0.1027
     36 C28        -2.6826    4.1970  -10.8546 C.ar      1 <0>        -0.1049
     37 C29        -2.5566    3.1988   -9.9066 C.ar      1 <0>        -0.1011
     38 N5         -2.0576   -0.6727  -10.6574 N.4       1 <0>        -0.4938
     39 C30        -3.0440   -1.6936  -11.0350 C.3       1 <0>        -0.0159
     40 C31        -2.5751   -2.4119  -12.3019 C.3       1 <0>        -0.1149
     41 C32        -3.5337   -3.5609  -12.6212 C.3       1 <0>        -0.1496
     42 C33        -2.5555   -1.4245  -13.4704 C.3       1 <0>        -0.1710
     43 O3         -2.1309   -3.1078   -1.1562 O.3       1 <0>        -0.5400
     44 O4          0.8778   -1.5910   -2.5956 O.3       1 <0>        -0.5509
     45 H3          3.4212   -5.7040   -1.6068 H         1 <0>         0.0559
     46 H4          3.1290   -4.5124   -0.3172 H         1 <0>         0.0547
     47 H5          1.9892   -5.8576   -0.5609 H         1 <0>         0.0548
     48 H6          2.4983   -3.5341   -2.4717 H         1 <0>         0.0753
     49 H7          0.6365   -5.9406   -2.7144 H         1 <0>         0.0542
     50 H8          0.7113   -4.5679   -3.8451 H         1 <0>         0.0502
     51 H9          2.1051   -5.6628   -3.6811 H         1 <0>         0.0551
     52 H10        -0.0061   -4.3738   -0.9459 H         1 <0>         0.0808
     53 H11         1.0930   -3.0708   -0.4335 H         1 <0>         0.0677
     54 H12        -1.2700   -0.2782   -2.7400 H         1 <0>         0.1102
     55 H13        -3.8948   -1.2834   -1.5531 H         1 <0>         0.0708
     56 H14        -2.8621   -0.0377   -0.8114 H         1 <0>         0.0724
     57 H15        -4.0454    0.1397   -3.6181 H         1 <0>         0.0718
     58 H16        -2.6162    2.1751   -1.8484 H         1 <0>         0.0474
     59 H17        -1.9271    1.3855   -3.2871 H         1 <0>         0.0776
     60 H18        -2.7982    3.6401   -3.8406 H         1 <0>         0.0528
     61 H19        -3.7187    2.3739   -4.6877 H         1 <0>         0.0589
     62 H20        -4.5490    3.7402   -2.0875 H         1 <0>         0.0595
     63 H21        -5.2368    4.0656   -3.6966 H         1 <0>         0.0564
     64 H22        -6.6673    2.4944   -2.4185 H         1 <0>         0.0585
     65 H23        -5.9781    1.7048   -3.8572 H         1 <0>         0.0554
     66 H24        -5.7962    0.2398   -1.8650 H         1 <0>         0.0564
     67 H25        -4.8756    1.5060   -1.0179 H         1 <0>         0.0599
     68 H26        -2.5386   -2.7521   -3.6334 H         1 <0>         0.3928
     69 H27        -2.2753   -2.6179   -6.3121 H         1 <0>         0.1297
     70 H28        -4.2993   -3.1435   -4.9078 H         1 <0>         0.0954
     71 H29        -5.1240   -1.7513   -5.6494 H         1 <0>         0.0898
     72 H30        -5.5726   -5.9482   -8.5344 H         1 <0>         0.4260
     73 H31        -5.0567   -5.3196   -6.0757 H         1 <0>         0.1784
     74 H32        -5.3342   -3.9245  -10.0796 H         1 <0>         0.2017
     75 H33        -3.7448   -0.1556   -7.0975 H         1 <0>         0.4139
     76 H34        -3.4719    0.3355   -9.4755 H         1 <0>         0.1604
     77 H35        -1.7412    1.4977   -8.0733 H         1 <0>         0.1291
     78 H36        -0.4749    0.7241   -9.0561 H         1 <0>         0.1040
     79 H37        -0.1442    1.3573  -11.3786 H         1 <0>         0.1215
     80 H38        -0.3737    3.1313  -13.0708 H         1 <0>         0.1320
     81 H39        -1.9990    4.9504  -12.7348 H         1 <0>         0.1322
     82 H40        -3.3953    4.9949  -10.7072 H         1 <0>         0.1330
     83 H41        -3.1717    3.2163   -9.0190 H         1 <0>         0.1314
     84 H42        -2.0119    0.0332  -11.3769 H         1 <0>         0.4278
     85 H43        -3.1477   -2.4158  -10.2252 H         1 <0>         0.1436
     86 H44        -4.0064   -1.2173  -11.2225 H         1 <0>         0.1313
     87 H45        -1.5721   -2.8086  -12.1446 H         1 <0>         0.0940
     88 H46        -4.5516   -3.1769  -12.6883 H         1 <0>         0.0674
     89 H47        -3.2531   -4.0146  -13.5718 H         1 <0>         0.0781
     90 H48        -3.4792   -4.3097  -11.8310 H         1 <0>         0.0655
     91 H49        -1.8726   -0.6059  -13.2430 H         1 <0>         0.0504
     92 H50        -2.2214   -1.9362  -14.3730 H         1 <0>         0.0835
     93 H51        -3.5585   -1.0278  -13.6278 H         1 <0>         0.0729
     94 H52        -2.4579   -3.6237   -1.9058 H         1 <0>         0.3677
     95 H53         1.2048   -1.0751   -1.8460 H         1 <0>         0.3775
     96 H54        -1.1515   -1.1036  -10.5509 H         1 <0>         0.4307
@<TRIPOS>BOND
     1    1    2 1
     2    1   45 1
     3    1   46 1
     4    1   47 1
     5    2    3 1
     6    2    4 1
     7    2   48 1
     8    3   49 1
     9    3   50 1
    10    3   51 1
    11    4    5 1
    12    4   52 1
    13    4   53 1
    14    5    6 1
    15    5    7 1
    16    5   44 1
    17    7    8 1
    18    7    9 1
    19    7   43 1
    20    9   10 1
    21    9   17 1
    22    9   54 1
    23   10   11 1
    24   10   55 1
    25   10   56 1
    26   11   16 1
    27   11   12 1
    28   11   57 1
    29   12   13 1
    30   12   58 1
    31   12   59 1
    32   13   14 1
    33   13   60 1
    34   13   61 1
    35   14   15 1
    36   14   62 1
    37   14   63 1
    38   15   16 1
    39   15   64 1
    40   15   65 1
    41   16   66 1
    42   16   67 1
    43   17   18 am
    44   17   68 1
    45   18   19 2
    46   18   20 1
    47   20   21 1
    48   20   27 1
    49   20   69 1
    50   21   70 1
    51   21   71 1
    52   21   22 1
    53   22   23 2
    54   22   26 1
    55   23   24 1
    56   23   73 1
    57   24   25 1
    58   24   72 1
    59   25   74 1
    60   25   26 2
    61   27   28 am
    62   27   75 1
    63   28   29 2
    64   28   30 1
    65   30   31 1
    66   30   38 1
    67   30   76 1
    68   31   32 1
    69   31   77 1
    70   31   78 1
    71   32   37 ar
    72   32   33 ar
    73   33   34 ar
    74   33   79 1
    75   34   35 ar
    76   34   80 1
    77   35   36 ar
    78   35   81 1
    79   36   37 ar
    80   36   82 1
    81   37   83 1
    82   38   39 1
    83   38   84 1
    84   38   96 1
    85   39   40 1
    86   39   85 1
    87   39   86 1
    88   40   41 1
    89   40   42 1
    90   40   87 1
    91   41   88 1
    92   41   89 1
    93   41   90 1
    94   42   91 1
    95   42   92 1
    96   42   93 1
    97   43   94 1
    98   44   95 1
@<TRIPOS>MOLECULE
CHEMBL73278__15
   97    99     0     0     0
SMALL
USER_CHARGES

@<TRIPOS>ATOM
      1 C1          2.0268    0.0268   -0.8689 C.3       1 <0>        -0.1524
      2 C2          1.8063   -1.4847   -0.7814 C.3       1 <0>        -0.0941
      3 C3          2.2094   -1.9794    0.6092 C.3       1 <0>        -0.1466
      4 C4          0.3292   -1.7996   -1.0263 C.3       1 <0>        -0.1481
      5 C5          0.1302   -3.3162   -1.0627 C.3       1 <0>         0.0796
      6 H1          0.5222   -3.7562   -0.1457 H         1 <0>         0.0952
      7 C6         -1.3620   -3.6321   -1.1827 C.3       1 <0>         0.0636
      8 H2         -1.7539   -3.1921   -2.0997 H         1 <0>         0.1209
      9 C7         -1.5609   -5.1487   -1.2192 C.3       1 <0>         0.1173
     10 C8         -3.0531   -5.4645   -1.3391 C.3       1 <0>        -0.1269
     11 C9         -3.2435   -6.9740   -1.5009 C.3       1 <0>        -0.0737
     12 C10        -2.6261   -7.4268   -2.8256 C.3       1 <0>        -0.1118
     13 C11        -2.8165   -8.9363   -2.9873 C.3       1 <0>        -0.1061
     14 C12        -4.3106   -9.2654   -2.9822 C.3       1 <0>        -0.1266
     15 C13        -4.9280   -8.8125   -1.6575 C.3       1 <0>        -0.1130
     16 C14        -4.7377   -7.3031   -1.4958 C.3       1 <0>        -0.1204
     17 N1         -1.0341   -5.7400    0.0133 N.am      1 <0>        -0.7074
     18 C15        -0.6308   -7.0260    0.0250 C.2       1 <0>         0.5092
     19 O1         -0.7041   -7.6936   -0.9849 O.2       1 <0>        -0.4919
     20 C16        -0.0889   -7.6343    1.2928 C.3       1 <0>         0.1238
     21 C17        -1.1579   -7.5722    2.3857 C.3       1 <0>        -0.0751
     22 C18        -0.5534   -7.9830    3.7035 C.2       1 <0>         0.0345
     23 C19         0.1832   -7.1999    4.5147 C.2       1 <0>         0.0685
     24 N2          0.5282   -7.9641    5.5966 N.pl3     1 <0>        -0.4874
     25 C20        -0.0098   -9.1885    5.4088 C.cat     1 <0>         0.2828
     26 N3         -0.6594   -9.1909    4.2770 N.pl3     1 <0>        -0.4844
     27 N4          0.2771   -9.0313    1.0465 N.am      1 <0>        -0.6826
     28 C21         1.2163   -9.6262    1.8084 C.2       1 <0>         0.5066
     29 O2          1.7823   -8.9954    2.6759 O.2       1 <0>        -0.5230
     30 C22         1.5632  -11.0752    1.5823 C.3       1 <0>         0.0081
     31 C23         2.7029  -11.1742    0.5663 C.3       1 <0>        -0.0899
     32 C24         2.9673  -12.6232    0.2477 C.ar      1 <0>        -0.1372
     33 C25         3.8777  -13.3414    1.0002 C.ar      1 <0>        -0.1444
     34 C26         4.1203  -14.6706    0.7079 C.ar      1 <0>        -0.1028
     35 C27         3.4520  -15.2817   -0.3366 C.ar      1 <0>        -0.0947
     36 C28         2.5409  -14.5637   -1.0885 C.ar      1 <0>        -0.1006
     37 C29         2.2952  -13.2358   -0.7935 C.ar      1 <0>        -0.1006
     38 N5          1.9850  -11.6816    2.8520 N.4       1 <0>        -0.4996
     39 C30         0.8108  -11.8870    3.7105 C.3       1 <0>        -0.0192
     40 C31         1.2274  -12.6475    4.9711 C.3       1 <0>        -0.1220
     41 C32        -0.0031  -12.8998    5.8445 C.3       1 <0>        -0.1563
     42 C33         1.8551  -13.9855    4.5754 C.3       1 <0>        -0.1765
     43 O3         -2.0560   -3.0875   -0.0586 O.3       1 <0>        -0.5352
     44 O4          0.8243   -3.8608   -2.1869 O.3       1 <0>        -0.5528
     45 H3          3.0791    0.2511   -0.6944 H         1 <0>         0.0575
     46 H4          1.7396    0.3791   -1.8595 H         1 <0>         0.0569
     47 H5          1.4189    0.5269   -0.1150 H         1 <0>         0.0554
     48 H6          2.4142   -1.9848   -1.5353 H         1 <0>         0.0760
     49 H7          2.0523   -3.0562    0.6715 H         1 <0>         0.0459
     50 H8          3.2617   -1.7550    0.7836 H         1 <0>         0.0566
     51 H9          1.6015   -1.4792    1.3631 H         1 <0>         0.0541
     52 H10        -0.2713   -1.3736   -0.2225 H         1 <0>         0.0814
     53 H11         0.0190   -1.3695   -1.9786 H         1 <0>         0.0705
     54 H12        -1.0315   -5.5641   -2.0766 H         1 <0>         0.1157
     55 H13        -3.5693   -5.1275   -0.4402 H         1 <0>         0.0725
     56 H14        -3.4644   -4.9513   -2.2083 H         1 <0>         0.0795
     57 H15        -2.7544   -7.4924   -0.6761 H         1 <0>         0.0636
     58 H16        -3.1151   -6.9085   -3.6503 H         1 <0>         0.0534
     59 H17        -1.5616   -7.1924   -2.8292 H         1 <0>         0.0771
     60 H18        -2.3766   -9.2589   -3.9310 H         1 <0>         0.0569
     61 H19        -2.3274   -9.4547   -2.1625 H         1 <0>         0.0536
     62 H20        -4.7997   -8.7470   -3.8070 H         1 <0>         0.0637
     63 H21        -4.4463  -10.3407   -3.0974 H         1 <0>         0.0586
     64 H22        -5.9925   -9.0470   -1.6539 H         1 <0>         0.0613
     65 H23        -4.4390   -9.3309   -0.8327 H         1 <0>         0.0498
     66 H24        -5.1775   -6.9805   -0.5521 H         1 <0>         0.0563
     67 H25        -5.2267   -6.7847   -2.3205 H         1 <0>         0.0648
     68 H26        -0.9756   -5.2060    0.8210 H         1 <0>         0.3935
     69 H27         0.7922   -7.0791    1.6144 H         1 <0>         0.1359
     70 H28        -1.5400   -6.5543    2.4627 H         1 <0>         0.1361
     71 H29        -1.9746   -8.2488    2.1339 H         1 <0>         0.1141
     72 H30         1.0599   -7.6794    6.3563 H         1 <0>         0.4727
     73 H31         0.4505   -6.1675    4.3441 H         1 <0>         0.2308
     74 H32         0.0793  -10.0257    6.0852 H         1 <0>         0.2616
     75 H33        -0.1565   -9.5281    0.3351 H         1 <0>         0.4278
     76 H34         0.6891  -11.6027    1.2004 H         1 <0>         0.1657
     77 H35         2.4235  -10.6468   -0.3457 H         1 <0>         0.1305
     78 H36         3.6030  -10.7242    0.9850 H         1 <0>         0.1092
     79 H37         4.3998  -12.8640    1.8162 H         1 <0>         0.1207
     80 H38         4.8321  -15.2315    1.2954 H         1 <0>         0.1359
     81 H39         3.6420  -16.3199   -0.5653 H         1 <0>         0.1373
     82 H40         2.0191  -15.0411   -1.9047 H         1 <0>         0.1374
     83 H41         1.5807  -12.6759   -1.3786 H         1 <0>         0.1321
     84 H42         2.4280  -12.5697    2.6698 H         1 <0>         0.4397
     85 H43         0.3923  -10.9204    3.9910 H         1 <0>         0.0912
     86 H44         0.0613  -12.4642    3.1690 H         1 <0>         0.1460
     87 H45         1.9538  -12.0562    5.5287 H         1 <0>         0.1011
     88 H46        -0.6851  -13.5734    5.3256 H         1 <0>         0.0796
     89 H47         0.3067  -13.3515    6.7869 H         1 <0>         0.0925
     90 H48        -0.5076  -11.9543    6.0434 H         1 <0>         0.0536
     91 H49         1.1287  -14.5768    4.0178 H         1 <0>         0.0802
     92 H50         2.7317  -13.8058    3.9531 H         1 <0>         0.0538
     93 H51         2.1519  -14.5273    5.4734 H         1 <0>         0.0967
     94 H52        -1.7584   -3.4348    0.7934 H         1 <0>         0.3632
     95 H53         0.5267   -3.5134   -3.0389 H         1 <0>         0.3822
     96 H54         2.6384  -11.0689    3.3167 H         1 <0>         0.4343
     97 H55        -1.1413   -9.9474    3.9078 H         1 <0>         0.4567
@<TRIPOS>BOND
     1    1    2 1
     2    1   45 1
     3    1   46 1
     4    1   47 1
     5    2    3 1
     6    2    4 1
     7    2   48 1
     8    3   49 1
     9    3   50 1
    10    3   51 1
    11    4    5 1
    12    4   52 1
    13    4   53 1
    14    5    6 1
    15    5    7 1
    16    5   44 1
    17    7    8 1
    18    7    9 1
    19    7   43 1
    20    9   10 1
    21    9   17 1
    22    9   54 1
    23   10   11 1
    24   10   55 1
    25   10   56 1
    26   11   16 1
    27   11   12 1
    28   11   57 1
    29   12   13 1
    30   12   58 1
    31   12   59 1
    32   13   14 1
    33   13   60 1
    34   13   61 1
    35   14   15 1
    36   14   62 1
    37   14   63 1
    38   15   16 1
    39   15   64 1
    40   15   65 1
    41   16   66 1
    42   16   67 1
    43   17   18 am
    44   17   68 1
    45   18   19 2
    46   18   20 1
    47   20   21 1
    48   20   27 1
    49   20   69 1
    50   21   70 1
    51   21   71 1
    52   21   22 1
    53   22   23 2
    54   22   26 1
    55   23   24 1
    56   23   73 1
    57   24   25 1
    58   24   72 1
    59   25   74 1
    60   25   26 2
    61   26   97 1
    62   27   28 am
    63   27   75 1
    64   28   29 2
    65   28   30 1
    66   30   31 1
    67   30   38 1
    68   30   76 1
    69   31   32 1
    70   31   77 1
    71   31   78 1
    72   32   37 ar
    73   32   33 ar
    74   33   34 ar
    75   33   79 1
    76   34   35 ar
    77   34   80 1
    78   35   36 ar
    79   35   81 1
    80   36   37 ar
    81   36   82 1
    82   37   83 1
    83   38   39 1
    84   38   84 1
    85   38   96 1
    86   39   40 1
    87   39   85 1
    88   39   86 1
    89   40   41 1
    90   40   42 1
    91   40   87 1
    92   41   88 1
    93   41   89 1
    94   41   90 1
    95   42   91 1
    96   42   92 1
    97   42   93 1
    98   43   94 1
    99   44   95 1
@<TRIPOS>MOLECULE
CHEMBL73278__16
   96    98     0     0     0
SMALL
USER_CHARGES

@<TRIPOS>ATOM
      1 C1          4.1077   -6.3327   -4.2209 C.3       1 <0>        -0.1499
      2 C2          3.4087   -6.1431   -2.8732 C.3       1 <0>        -0.0944
      3 C3          3.8533   -4.8184   -2.2499 C.3       1 <0>        -0.1506
      4 C4          1.8932   -6.1248   -3.0828 C.3       1 <0>        -0.1430
      5 C5          1.1913   -6.0607   -1.7248 C.3       1 <0>         0.0751
      6 H1          1.5628   -5.2031   -1.1640 H         1 <0>         0.1078
      7 C6         -0.3171   -5.9168   -1.9368 C.3       1 <0>         0.0674
      8 H2         -0.6887   -6.7744   -2.4976 H         1 <0>         0.1016
      9 C7         -1.0191   -5.8526   -0.5788 C.3       1 <0>         0.1122
     10 C8         -0.5907   -4.5815    0.1572 C.3       1 <0>        -0.1348
     11 C9         -1.0722   -4.6454    1.6080 C.3       1 <0>        -0.0793
     12 C10        -2.6012   -4.5984    1.6405 C.3       1 <0>        -0.1256
     13 C11        -3.0827   -4.6623    3.0913 C.3       1 <0>        -0.1200
     14 C12        -2.5193   -3.4710    3.8686 C.3       1 <0>        -0.1203
     15 C13        -0.9903   -3.5179    3.8361 C.3       1 <0>        -0.1211
     16 C14        -0.5088   -3.4540    2.3853 C.3       1 <0>        -0.1156
     17 N1         -2.4702   -5.8351   -0.7795 N.am      1 <0>        -0.7062
     18 C15        -3.2289   -6.8409   -0.3007 C.2       1 <0>         0.5149
     19 O1         -2.7046   -7.7918    0.2395 O.2       1 <0>        -0.5238
     20 C16        -4.7286   -6.7839   -0.4364 C.3       1 <0>         0.1346
     21 C17        -5.2594   -5.5441    0.2862 C.3       1 <0>        -0.0602
     22 C18        -6.7422   -5.4199    0.0477 C.2       1 <0>        -0.0048
     23 C19        -7.7212   -6.0254    0.7466 C.2       1 <0>        -0.0328
     24 N2         -8.8976   -5.6547    0.2196 N.2       1 <0>        -0.4941
     25 C20        -8.6847   -4.8425   -0.7795 C.2       1 <0>         0.2034
     26 N3         -7.3530   -4.6654   -0.9173 N.pl3     1 <0>        -0.5545
     27 N4         -5.3188   -7.9857    0.1580 N.am      1 <0>        -0.6905
     28 C21        -6.5256   -8.4196   -0.2565 C.2       1 <0>         0.5114
     29 O2         -7.1230   -7.8150   -1.1217 O.2       1 <0>        -0.4918
     30 C22        -7.1327   -9.6559    0.3550 C.3       1 <0>         0.0099
     31 C23        -6.5093  -10.8991   -0.2826 C.3       1 <0>        -0.0951
     32 C24        -6.6859  -10.8390   -1.7780 C.ar      1 <0>        -0.1286
     33 C25        -7.7982  -11.4116   -2.3662 C.ar      1 <0>        -0.1343
     34 C26        -7.9602  -11.3564   -3.7379 C.ar      1 <0>        -0.1067
     35 C27        -7.0103  -10.7282   -4.5214 C.ar      1 <0>        -0.0995
     36 C28        -5.8986  -10.1547   -3.9331 C.ar      1 <0>        -0.1037
     37 C29        -5.7386  -10.2062   -2.5610 C.ar      1 <0>        -0.0921
     38 N5         -8.5824   -9.6585    0.1175 N.4       1 <0>        -0.4956
     39 C30        -9.1812  -10.8382    0.7559 C.3       1 <0>        -0.0154
     40 C31       -10.7052  -10.7584    0.6475 C.3       1 <0>        -0.1162
     41 C32       -11.1170  -10.8415   -0.8237 C.3       1 <0>        -0.1726
     42 C33       -11.3330  -11.9208    1.4193 C.3       1 <0>        -0.1509
     43 O3         -0.5833   -4.7180   -2.6677 O.3       1 <0>        -0.5507
     44 O4          1.4574   -7.2594   -0.9939 O.3       1 <0>        -0.5489
     45 H3          5.1874   -6.3457   -4.0716 H         1 <0>         0.0571
     46 H4          3.7909   -7.2764   -4.6649 H         1 <0>         0.0531
     47 H5          3.8428   -5.5110   -4.8863 H         1 <0>         0.0543
     48 H6          3.6736   -6.9648   -2.2077 H         1 <0>         0.0764
     49 H7          3.5885   -3.9968   -2.9154 H         1 <0>         0.0542
     50 H8          3.3553   -4.6834   -1.2898 H         1 <0>         0.0534
     51 H9          4.9330   -4.8315   -2.1006 H         1 <0>         0.0571
     52 H10         1.6189   -5.2520   -3.6752 H         1 <0>         0.0805
     53 H11         1.5880   -7.0304   -3.6071 H         1 <0>         0.0644
     54 H12        -0.7447   -6.7254    0.0136 H         1 <0>         0.1228
     55 H13         0.4961   -4.4995    0.1383 H         1 <0>         0.0837
     56 H14        -1.0292   -3.7124   -0.3332 H         1 <0>         0.0707
     57 H15        -0.7274   -5.5731    2.0648 H         1 <0>         0.0730
     58 H16        -2.9459   -3.6708    1.1837 H         1 <0>         0.0579
     59 H17        -3.0025   -5.4472    1.0867 H         1 <0>         0.0690
     60 H18        -4.1719   -4.6289    3.1144 H         1 <0>         0.0562
     61 H19        -2.7379   -5.5900    3.5480 H         1 <0>         0.0608
     62 H20        -2.8641   -2.5433    3.4118 H         1 <0>         0.0603
     63 H21        -2.8623   -3.5165    4.9022 H         1 <0>         0.0611
     64 H22        -0.5889   -2.6692    4.3899 H         1 <0>         0.0635
     65 H23        -0.6455   -4.4456    4.2929 H         1 <0>         0.0619
     66 H24         0.5804   -3.4875    2.3622 H         1 <0>         0.0634
     67 H25        -0.8536   -2.5264    1.9286 H         1 <0>         0.0615
     68 H26        -2.8849   -5.0997   -1.2570 H         1 <0>         0.4051
     69 H27        -4.9962   -6.7316   -1.4918 H         1 <0>         0.1208
     70 H28        -5.0700   -5.6380    1.3555 H         1 <0>         0.1051
     71 H29        -4.7544   -4.6569   -0.0957 H         1 <0>         0.0932
     72 H30        -7.5833   -6.6925    1.5847 H         1 <0>         0.1519
     73 H31        -9.4473   -4.3850   -1.3923 H         1 <0>         0.2069
     74 H32        -4.8410   -8.4693    0.8500 H         1 <0>         0.4178
     75 H33        -6.9404   -9.6626    1.4279 H         1 <0>         0.1647
     76 H34        -5.4464  -10.9359   -0.0435 H         1 <0>         0.1255
     77 H35        -7.0001  -11.7916    0.1056 H         1 <0>         0.1116
     78 H36        -8.5403  -11.9025   -1.7541 H         1 <0>         0.1204
     79 H37        -8.8288  -11.8044   -4.1975 H         1 <0>         0.1311
     80 H38        -7.1366  -10.6857   -5.5931 H         1 <0>         0.1308
     81 H39        -5.1562   -9.6642   -4.5453 H         1 <0>         0.1279
     82 H40        -4.8719   -9.7549   -2.1011 H         1 <0>         0.1214
     83 H41        -8.9888   -8.8218    0.5085 H         1 <0>         0.4343
     84 H42        -8.8281  -11.7403    0.2561 H         1 <0>         0.1338
     85 H43        -8.8927  -10.8684    1.8066 H         1 <0>         0.1382
     86 H44       -11.0504   -9.8141    1.0686 H         1 <0>         0.0979
     87 H45       -12.2028  -10.7847   -0.9008 H         1 <0>         0.0853
     88 H46       -10.6698  -10.0134   -1.3735 H         1 <0>         0.0527
     89 H47       -10.7718  -11.7858   -1.2447 H         1 <0>         0.0716
     90 H48       -11.0396  -11.8615    2.4675 H         1 <0>         0.0687
     91 H49       -12.4188  -11.8639    1.3422 H         1 <0>         0.0791
     92 H50       -10.9878  -12.8650    0.9983 H         1 <0>         0.0678
     93 H51        -0.2790   -3.9129   -2.2269 H         1 <0>         0.3771
     94 H52         1.1531   -8.0645   -1.4347 H         1 <0>         0.3758
     95 H53        -8.7605   -9.6865   -0.8753 H         1 <0>         0.4319
     96 H54        -6.9117   -4.1087   -1.5778 H         1 <0>         0.4210
@<TRIPOS>BOND
     1    1    2 1
     2    1   45 1
     3    1   46 1
     4    1   47 1
     5    2    3 1
     6    2    4 1
     7    2   48 1
     8    3   49 1
     9    3   50 1
    10    3   51 1
    11    4    5 1
    12    4   52 1
    13    4   53 1
    14    5    6 1
    15    5    7 1
    16    5   44 1
    17    7    8 1
    18    7    9 1
    19    7   43 1
    20    9   10 1
    21    9   17 1
    22    9   54 1
    23   10   11 1
    24   10   55 1
    25   10   56 1
    26   11   16 1
    27   11   12 1
    28   11   57 1
    29   12   13 1
    30   12   58 1
    31   12   59 1
    32   13   14 1
    33   13   60 1
    34   13   61 1
    35   14   15 1
    36   14   62 1
    37   14   63 1
    38   15   16 1
    39   15   64 1
    40   15   65 1
    41   16   66 1
    42   16   67 1
    43   17   18 am
    44   17   68 1
    45   18   19 2
    46   18   20 1
    47   20   21 1
    48   20   27 1
    49   20   69 1
    50   21   70 1
    51   21   71 1
    52   21   22 1
    53   22   23 2
    54   22   26 1
    55   23   24 1
    56   23   72 1
    57   24   25 2
    58   25   73 1
    59   25   26 1
    60   26   96 1
    61   27   28 am
    62   27   74 1
    63   28   29 2
    64   28   30 1
    65   30   31 1
    66   30   38 1
    67   30   75 1
    68   31   32 1
    69   31   76 1
    70   31   77 1
    71   32   37 ar
    72   32   33 ar
    73   33   34 ar
    74   33   78 1
    75   34   35 ar
    76   34   79 1
    77   35   36 ar
    78   35   80 1
    79   36   37 ar
    80   36   81 1
    81   37   82 1
    82   38   39 1
    83   38   83 1
    84   38   95 1
    85   39   40 1
    86   39   84 1
    87   39   85 1
    88   40   41 1
    89   40   42 1
    90   40   86 1
    91   41   87 1
    92   41   88 1
    93   41   89 1
    94   42   90 1
    95   42   91 1
    96   42   92 1
    97   43   93 1
    98   44   94 1
@<TRIPOS>MOLECULE
CHEMBL73278__17
   96    98     0     0     0
SMALL
USER_CHARGES

@<TRIPOS>ATOM
      1 C1         -0.1185    5.3674   -3.3577 C.3       1 <0>        -0.1497
      2 C2         -0.4254    4.0617   -4.0938 C.3       1 <0>        -0.0949
      3 C3          0.7786    3.1232   -3.9910 C.3       1 <0>        -0.1503
      4 C4         -1.6478    3.3943   -3.4604 C.3       1 <0>        -0.1433
      5 C5         -2.0768    2.1999   -4.3149 C.3       1 <0>         0.0755
      6 H1         -1.2254    1.5360   -4.4650 H         1 <0>         0.1073
      7 C6         -3.1971    1.4394   -3.6026 C.3       1 <0>         0.0674
      8 H2         -4.0485    2.1033   -3.4525 H         1 <0>         0.1016
      9 C7         -3.6261    0.2450   -4.4571 C.3       1 <0>         0.1124
     10 C8         -2.4672   -0.7481   -4.5639 C.3       1 <0>        -0.1347
     11 C9         -2.8238   -1.8414   -5.5731 C.3       1 <0>        -0.0773
     12 C10        -3.9792   -2.6825   -5.0269 C.3       1 <0>        -0.1280
     13 C11        -4.3358   -3.7758   -6.0360 C.3       1 <0>        -0.1176
     14 C12        -3.1179   -4.6722   -6.2686 C.3       1 <0>        -0.1204
     15 C13        -1.9624   -3.8311   -6.8148 C.3       1 <0>        -0.1205
     16 C14        -1.6058   -2.7378   -5.8057 C.3       1 <0>        -0.1160
     17 N1         -4.7772   -0.4130   -3.8339 N.am      1 <0>        -0.7065
     18 C15        -5.9410   -0.5141   -4.5060 C.2       1 <0>         0.5159
     19 O1         -6.0098   -0.1432   -5.6587 O.2       1 <0>        -0.5301
     20 C16        -7.1568   -1.0881   -3.8253 C.3       1 <0>         0.1366
     21 C17        -6.8622   -2.5215   -3.3786 C.3       1 <0>        -0.0451
     22 C18        -8.0321   -3.0527   -2.5910 C.2       1 <0>         0.0084
     23 C19        -8.7133   -4.1846   -2.8522 C.2       1 <0>        -0.0641
     24 N2         -9.6889   -4.2889   -1.8976 N.pl3     1 <0>        -0.5753
     25 C20        -9.5697   -3.2162   -1.0859 C.2       1 <0>         0.1912
     26 N3         -8.5736   -2.4839   -1.5037 N.2       1 <0>        -0.4486
     27 N4         -8.2846   -1.0901   -4.7603 N.am      1 <0>        -0.6882
     28 C21        -9.5482   -1.0664   -4.2921 C.2       1 <0>         0.5005
     29 O2         -9.7516   -1.0436   -3.0967 O.2       1 <0>        -0.4790
     30 C22       -10.7084   -1.0685   -5.2539 C.3       1 <0>         0.0084
     31 C23       -10.9236    0.3459   -5.7964 C.3       1 <0>        -0.0930
     32 C24       -11.2169    1.2831   -4.6533 C.ar      1 <0>        -0.1294
     33 C25       -12.5199    1.4742   -4.2331 C.ar      1 <0>        -0.1412
     34 C26       -12.7890    2.3339   -3.1846 C.ar      1 <0>        -0.1073
     35 C27       -11.7550    3.0021   -2.5559 C.ar      1 <0>        -0.0989
     36 C28       -10.4519    2.8104   -2.9755 C.ar      1 <0>        -0.0996
     37 C29       -10.1824    1.9474   -4.0213 C.ar      1 <0>        -0.0872
     38 N5        -11.9217   -1.5154   -4.5567 N.4       1 <0>        -0.4947
     39 C30       -13.0094   -1.6885   -5.5288 C.3       1 <0>        -0.0158
     40 C31       -14.2970   -2.0628   -4.7920 C.3       1 <0>        -0.1169
     41 C32       -15.4563   -2.1211   -5.7887 C.3       1 <0>        -0.1516
     42 C33       -14.1257   -3.4307   -4.1285 C.3       1 <0>        -0.1700
     43 O3         -2.7266    0.9744   -2.3359 O.3       1 <0>        -0.5494
     44 O4         -2.5473    2.6649   -5.5815 O.3       1 <0>        -0.5495
     45 H3          0.8016    5.7991   -3.7517 H         1 <0>         0.0568
     46 H4         -0.9403    6.0685   -3.5036 H         1 <0>         0.0529
     47 H5          0.0018    5.1650   -2.2935 H         1 <0>         0.0543
     48 H6         -0.6309    4.2756   -5.1427 H         1 <0>         0.0764
     49 H7          0.9841    2.9094   -2.9422 H         1 <0>         0.0546
     50 H8          0.5600    2.1930   -4.5154 H         1 <0>         0.0528
     51 H9          1.6495    3.5987   -4.4423 H         1 <0>         0.0566
     52 H10        -1.3953    3.0512   -2.4570 H         1 <0>         0.0813
     53 H11        -2.4654    4.1128   -3.4036 H         1 <0>         0.0646
     54 H12        -3.9010    0.5911   -5.4534 H         1 <0>         0.1212
     55 H13        -1.5703   -0.2254   -4.8963 H         1 <0>         0.0819
     56 H14        -2.2843   -1.1995   -3.5888 H         1 <0>         0.0705
     57 H15        -3.1224   -1.3825   -6.5156 H         1 <0>         0.0721
     58 H16        -3.6806   -3.1415   -4.0843 H         1 <0>         0.0578
     59 H17        -4.8469   -2.0439   -4.8612 H         1 <0>         0.0738
     60 H18        -5.1589   -4.3750   -5.6469 H         1 <0>         0.0541
     61 H19        -4.6344   -3.3169   -6.9786 H         1 <0>         0.0592
     62 H20        -2.8193   -5.1311   -5.3261 H         1 <0>         0.0605
     63 H21        -3.3719   -5.4511   -6.9875 H         1 <0>         0.0593
     64 H22        -1.0948   -4.4696   -6.9805 H         1 <0>         0.0625
     65 H23        -2.2610   -3.3721   -7.7574 H         1 <0>         0.0610
     66 H24        -0.7827   -2.1386   -6.1948 H         1 <0>         0.0624
     67 H25        -1.3072   -3.1967   -4.8631 H         1 <0>         0.0615
     68 H26        -4.7017   -0.7759   -2.9375 H         1 <0>         0.4079
     69 H27        -7.4070   -0.4806   -2.9556 H         1 <0>         0.1314
     70 H28        -6.6992   -3.1489   -4.2549 H         1 <0>         0.0878
     71 H29        -5.9692   -2.5310   -2.7537 H         1 <0>         0.0943
     72 H30       -10.3435   -5.0003   -1.8190 H         1 <0>         0.4191
     73 H31        -8.5261   -4.8769   -3.6597 H         1 <0>         0.1702
     74 H32       -10.1929   -3.0021   -0.2302 H         1 <0>         0.2030
     75 H33        -8.1220   -1.1083   -5.7164 H         1 <0>         0.4141
     76 H34       -10.4939   -1.7459   -6.0804 H         1 <0>         0.1615
     77 H35       -10.0241    0.6766   -6.3157 H         1 <0>         0.1253
     78 H36       -11.7642    0.3449   -6.4903 H         1 <0>         0.1096
     79 H37       -13.3277    0.9521   -4.7242 H         1 <0>         0.1189
     80 H38       -13.8070    2.4837   -2.8567 H         1 <0>         0.1307
     81 H39       -11.9653    3.6743   -1.7372 H         1 <0>         0.1314
     82 H40        -9.6441    3.3327   -2.4846 H         1 <0>         0.1301
     83 H41        -9.1640    1.7947   -4.3467 H         1 <0>         0.1228
     84 H42       -11.7400   -2.3941   -4.0952 H         1 <0>         0.4262
     85 H43       -13.1606   -0.7571   -6.0744 H         1 <0>         0.1363
     86 H44       -12.7479   -2.4816   -6.2292 H         1 <0>         0.1368
     87 H45       -14.5105   -1.3134   -4.0298 H         1 <0>         0.0948
     88 H46       -15.2429   -2.8704   -6.5510 H         1 <0>         0.0691
     89 H47       -16.3737   -2.3877   -5.2639 H         1 <0>         0.0793
     90 H48       -15.5784   -1.1465   -6.2615 H         1 <0>         0.0690
     91 H49       -13.2997   -3.3892   -3.4184 H         1 <0>         0.0489
     92 H50       -15.0430   -3.6974   -3.6036 H         1 <0>         0.0851
     93 H51       -13.9122   -4.1801   -4.8907 H         1 <0>         0.0732
     94 H52        -1.9681    0.3773   -2.3931 H         1 <0>         0.3771
     95 H53        -3.3058    3.2619   -5.5243 H         1 <0>         0.3751
     96 H54       -12.1896   -0.8247   -3.8716 H         1 <0>         0.4318
@<TRIPOS>BOND
     1    1    2 1
     2    1   45 1
     3    1   46 1
     4    1   47 1
     5    2    3 1
     6    2    4 1
     7    2   48 1
     8    3   49 1
     9    3   50 1
    10    3   51 1
    11    4    5 1
    12    4   52 1
    13    4   53 1
    14    5    6 1
    15    5    7 1
    16    5   44 1
    17    7    8 1
    18    7    9 1
    19    7   43 1
    20    9   10 1
    21    9   17 1
    22    9   54 1
    23   10   11 1
    24   10   55 1
    25   10   56 1
    26   11   16 1
    27   11   12 1
    28   11   57 1
    29   12   13 1
    30   12   58 1
    31   12   59 1
    32   13   14 1
    33   13   60 1
    34   13   61 1
    35   14   15 1
    36   14   62 1
    37   14   63 1
    38   15   16 1
    39   15   64 1
    40   15   65 1
    41   16   66 1
    42   16   67 1
    43   17   18 am
    44   17   68 1
    45   18   19 2
    46   18   20 1
    47   20   21 1
    48   20   27 1
    49   20   69 1
    50   21   70 1
    51   21   71 1
    52   21   22 1
    53   22   23 2
    54   22   26 1
    55   23   24 1
    56   23   73 1
    57   24   25 1
    58   24   72 1
    59   25   74 1
    60   25   26 2
    61   27   28 am
    62   27   75 1
    63   28   29 2
    64   28   30 1
    65   30   31 1
    66   30   38 1
    67   30   76 1
    68   31   32 1
    69   31   77 1
    70   31   78 1
    71   32   37 ar
    72   32   33 ar
    73   33   34 ar
    74   33   79 1
    75   34   35 ar
    76   34   80 1
    77   35   36 ar
    78   35   81 1
    79   36   37 ar
    80   36   82 1
    81   37   83 1
    82   38   39 1
    83   38   84 1
    84   38   96 1
    85   39   40 1
    86   39   85 1
    87   39   86 1
    88   40   41 1
    89   40   42 1
    90   40   87 1
    91   41   88 1
    92   41   89 1
    93   41   90 1
    94   42   91 1
    95   42   92 1
    96   42   93 1
    97   43   94 1
    98   44   95 1
@<TRIPOS>MOLECULE
CHEMBL73278__18
   97    99     0     0     0
SMALL
USER_CHARGES

@<TRIPOS>ATOM
      1 C1          2.8768   -6.5916   -5.0495 C.3       1 <0>        -0.1508
      2 C2          2.3735   -6.5610   -3.6050 C.3       1 <0>        -0.0945
      3 C3          3.0979   -5.4545   -2.8358 C.3       1 <0>        -0.1509
      4 C4          0.8681   -6.2876   -3.5951 C.3       1 <0>        -0.1428
      5 C5          0.3423   -6.3804   -2.1613 C.3       1 <0>         0.0743
      6 H1          0.9109   -5.7056   -1.5214 H         1 <0>         0.1086
      7 C6         -1.1356   -5.9854   -2.1335 C.3       1 <0>         0.0675
      8 H2         -1.7041   -6.6603   -2.7734 H         1 <0>         0.1019
      9 C7         -1.6614   -6.0783   -0.6997 C.3       1 <0>         0.1121
     10 C8         -0.9492   -5.0426    0.1727 C.3       1 <0>        -0.1358
     11 C9         -1.2528   -5.3216    1.6461 C.3       1 <0>        -0.0808
     12 C10        -2.7565   -5.1829    1.8921 C.3       1 <0>        -0.1249
     13 C11        -3.0601   -5.4619    3.3655 C.3       1 <0>        -0.1202
     14 C12        -2.3055   -4.4589    4.2405 C.3       1 <0>        -0.1206
     15 C13        -0.8018   -4.5977    3.9945 C.3       1 <0>        -0.1237
     16 C14        -0.4982   -4.3187    2.5211 C.3       1 <0>        -0.1166
     17 N1         -3.1027   -5.8164   -0.6903 N.am      1 <0>        -0.7014
     18 C15        -3.9648   -6.8028   -0.3736 C.2       1 <0>         0.5114
     19 O1         -3.5562   -7.9302   -0.1920 O.2       1 <0>        -0.5112
     20 C16        -5.4365   -6.5050   -0.2451 C.3       1 <0>         0.1280
     21 C17        -5.6515   -5.4600    0.8515 C.3       1 <0>        -0.0843
     22 C18        -7.1069   -5.0716    0.8969 C.2       1 <0>         0.0609
     23 C19        -8.0784   -5.7199    1.5673 C.2       1 <0>         0.0083
     24 N2         -9.2414   -5.0346    1.3402 N.pl3     1 <0>        -0.5120
     25 C20        -8.9398   -3.9907    0.5384 C.cat     1 <0>         0.3296
     26 N3         -7.6606   -4.0163    0.2815 N.pl3     1 <0>        -0.4658
     27 N4         -6.1547   -7.7334    0.1033 N.am      1 <0>        -0.6852
     28 C21        -7.4595   -7.8627   -0.2089 C.2       1 <0>         0.5118
     29 O2         -8.0389   -6.9622   -0.7782 O.2       1 <0>        -0.5229
     30 C22        -8.1983   -9.1263    0.1495 C.3       1 <0>         0.0065
     31 C23        -7.8832  -10.2114   -0.8822 C.3       1 <0>        -0.0956
     32 C24        -8.2869   -9.7333   -2.2532 C.ar      1 <0>        -0.1360
     33 C25        -9.5676   -9.9677   -2.7176 C.ar      1 <0>        -0.1383
     34 C26        -9.9379   -9.5292   -3.9751 C.ar      1 <0>        -0.1039
     35 C27        -9.0275   -8.8560   -4.7682 C.ar      1 <0>        -0.0953
     36 C28        -7.7470   -8.6208   -4.3034 C.ar      1 <0>        -0.1017
     37 C29        -7.3781   -9.0555   -3.0441 C.ar      1 <0>        -0.0939
     38 N5         -9.6435   -8.8630    0.1575 N.4       1 <0>        -0.4963
     39 C30       -10.3580  -10.0665    0.6036 C.3       1 <0>        -0.0206
     40 C31       -11.8663   -9.8190    0.5349 C.3       1 <0>        -0.1171
     41 C32       -12.6112  -11.1102    0.8795 C.3       1 <0>        -0.1551
     42 C33       -12.2499   -8.7265    1.5349 C.3       1 <0>        -0.1692
     43 O3         -1.2794   -4.6451   -2.6078 O.3       1 <0>        -0.5510
     44 O4          0.4862   -7.7207   -1.6871 O.3       1 <0>        -0.5485
     45 H3          3.9492   -6.7864   -5.0566 H         1 <0>         0.0588
     46 H4          2.3607   -7.3799   -5.5975 H         1 <0>         0.0533
     47 H5          2.6791   -5.6302   -5.5236 H         1 <0>         0.0547
     48 H6          2.5712   -7.5224   -3.1310 H         1 <0>         0.0768
     49 H7          2.7393   -5.4328   -1.8067 H         1 <0>         0.0522
     50 H8          4.1703   -5.6493   -2.8428 H         1 <0>         0.0589
     51 H9          2.9002   -4.4931   -3.3099 H         1 <0>         0.0545
     52 H10         0.6777   -5.2888   -3.9880 H         1 <0>         0.0806
     53 H11         0.3608   -7.0254   -4.2167 H         1 <0>         0.0645
     54 H12        -1.4709   -7.0770   -0.3068 H         1 <0>         0.1246
     55 H13         0.1261   -5.1043    0.0053 H         1 <0>         0.0890
     56 H14        -1.3008   -4.0444   -0.0880 H         1 <0>         0.0722
     57 H15        -0.9354   -6.3337    1.8972 H         1 <0>         0.0758
     58 H16        -3.0739   -4.1708    1.6411 H         1 <0>         0.0571
     59 H17        -3.2941   -5.8974    1.2687 H         1 <0>         0.0638
     60 H18        -4.1314   -5.3630    3.5408 H         1 <0>         0.0502
     61 H19        -2.7427   -6.4740    3.6166 H         1 <0>         0.0643
     62 H20        -2.6229   -3.4468    3.9894 H         1 <0>         0.0598
     63 H21        -2.5218   -4.6577    5.2902 H         1 <0>         0.0630
     64 H22        -0.2642   -3.8832    4.6178 H         1 <0>         0.0670
     65 H23        -0.4844   -5.6098    4.2455 H         1 <0>         0.0641
     66 H24         0.5731   -4.4175    2.3458 H         1 <0>         0.0672
     67 H25        -0.8155   -3.3066    2.2700 H         1 <0>         0.0620
     68 H26        -3.4367   -4.9331   -0.9119 H         1 <0>         0.4040
     69 H27        -5.8133   -6.1201   -1.1927 H         1 <0>         0.1306
     70 H28        -5.3567   -5.8777    1.8142 H         1 <0>         0.1315
     71 H29        -5.0468   -4.5788    0.6373 H         1 <0>         0.1226
     72 H30       -10.1183   -5.2573    1.6899 H         1 <0>         0.4645
     73 H31        -7.9623   -6.6097    2.1683 H         1 <0>         0.2136
     74 H32        -9.6405   -3.2542    0.1736 H         1 <0>         0.2693
     75 H33        -5.6913   -8.4536    0.5586 H         1 <0>         0.4276
     76 H34        -7.8848   -9.4626    1.1378 H         1 <0>         0.1717
     77 H35        -6.8141  -10.4234   -0.8715 H         1 <0>         0.1297
     78 H36        -8.4360  -11.1181   -0.6362 H         1 <0>         0.1180
     79 H37       -10.2789  -10.4937   -2.0980 H         1 <0>         0.1214
     80 H38       -10.9383   -9.7129   -4.3382 H         1 <0>         0.1344
     81 H39        -9.3166   -8.5140   -5.7510 H         1 <0>         0.1345
     82 H40        -7.0357   -8.0951   -4.9231 H         1 <0>         0.1309
     83 H41        -6.3788   -8.8685   -2.6795 H         1 <0>         0.1210
     84 H42        -9.8430   -8.1005    0.7874 H         1 <0>         0.4157
     85 H43       -10.0975  -10.9044   -0.0431 H         1 <0>         0.1423
     86 H44       -10.0742  -10.2979    1.6302 H         1 <0>         0.1427
     87 H45       -12.1368   -9.5012   -0.4721 H         1 <0>         0.0961
     88 H46       -12.3407  -11.4281    1.8864 H         1 <0>         0.0718
     89 H47       -13.6858  -10.9339    0.8305 H         1 <0>         0.0831
     90 H48       -12.3379  -11.8886    0.1670 H         1 <0>         0.0719
     91 H49       -11.9794   -9.0443    2.5418 H         1 <0>         0.0769
     92 H50       -11.7192   -7.8066    1.2894 H         1 <0>         0.0392
     93 H51       -13.3245   -8.5502    1.4859 H         1 <0>         0.0899
     94 H52        -0.7988   -3.9891   -2.0846 H         1 <0>         0.3782
     95 H53         0.0056   -8.3768   -2.2102 H         1 <0>         0.3763
     96 H54        -9.9459   -8.6181   -0.7735 H         1 <0>         0.4348
     97 H55        -7.1855   -3.3746   -0.2693 H         1 <0>         0.4676
@<TRIPOS>BOND
     1    1    2 1
     2    1   45 1
     3    1   46 1
     4    1   47 1
     5    2    3 1
     6    2    4 1
     7    2   48 1
     8    3   49 1
     9    3   50 1
    10    3   51 1
    11    4    5 1
    12    4   52 1
    13    4   53 1
    14    5    6 1
    15    5    7 1
    16    5   44 1
    17    7    8 1
    18    7    9 1
    19    7   43 1
    20    9   10 1
    21    9   17 1
    22    9   54 1
    23   10   11 1
    24   10   55 1
    25   10   56 1
    26   11   16 1
    27   11   12 1
    28   11   57 1
    29   12   13 1
    30   12   58 1
    31   12   59 1
    32   13   14 1
    33   13   60 1
    34   13   61 1
    35   14   15 1
    36   14   62 1
    37   14   63 1
    38   15   16 1
    39   15   64 1
    40   15   65 1
    41   16   66 1
    42   16   67 1
    43   17   18 am
    44   17   68 1
    45   18   19 2
    46   18   20 1
    47   20   21 1
    48   20   27 1
    49   20   69 1
    50   21   70 1
    51   21   71 1
    52   21   22 1
    53   22   23 2
    54   22   26 1
    55   23   24 1
    56   23   73 1
    57   24   25 1
    58   24   72 1
    59   25   74 1
    60   25   26 2
    61   26   97 1
    62   27   28 am
    63   27   75 1
    64   28   29 2
    65   28   30 1
    66   30   31 1
    67   30   38 1
    68   30   76 1
    69   31   32 1
    70   31   77 1
    71   31   78 1
    72   32   37 ar
    73   32   33 ar
    74   33   34 ar
    75   33   79 1
    76   34   35 ar
    77   34   80 1
    78   35   36 ar
    79   35   81 1
    80   36   37 ar
    81   36   82 1
    82   37   83 1
    83   38   39 1
    84   38   84 1
    85   38   96 1
    86   39   40 1
    87   39   85 1
    88   39   86 1
    89   40   41 1
    90   40   42 1
    91   40   87 1
    92   41   88 1
    93   41   89 1
    94   41   90 1
    95   42   91 1
    96   42   92 1
    97   42   93 1
    98   43   94 1
    99   44   95 1
@<TRIPOS>MOLECULE
CHEMBL73278__19
   96    98     0     0     0
SMALL
USER_CHARGES

@<TRIPOS>ATOM
      1 C1          0.5772    5.5232    2.5352 C.3       1 <0>        -0.1501
      2 C2         -0.1651    4.3142    3.1082 C.3       1 <0>        -0.0946
      3 C3         -0.5572    3.3700    1.9700 C.3       1 <0>        -0.1507
      4 C4          0.7449    3.5764    4.0923 C.3       1 <0>        -0.1431
      5 C5         -0.0268    2.4209    4.7326 C.3       1 <0>         0.0749
      6 H1         -0.4470    1.7875    3.9513 H         1 <0>         0.1082
      7 C6          0.9217    1.5948    5.6037 C.3       1 <0>         0.0668
      8 H2          1.3418    2.2282    6.3850 H         1 <0>         0.1028
      9 C7          0.1499    0.4392    6.2439 C.3       1 <0>         0.1116
     10 C8         -0.3339   -0.5176    5.1525 C.3       1 <0>        -0.1336
     11 C9         -1.2663   -1.5632    5.7676 C.3       1 <0>        -0.0787
     12 C10        -0.4685   -2.4663    6.7103 C.3       1 <0>        -0.1265
     13 C11        -1.4009   -3.5119    7.3254 C.3       1 <0>        -0.1199
     14 C12        -2.0226   -4.3584    6.2127 C.3       1 <0>        -0.1200
     15 C13        -2.8203   -3.4552    5.2700 C.3       1 <0>        -0.1220
     16 C14        -1.8879   -2.4097    4.6549 C.3       1 <0>        -0.1156
     17 N1          1.0277   -0.2803    7.1702 N.am      1 <0>        -0.7094
     18 C15         0.6968   -0.3790    8.4730 C.2       1 <0>         0.5142
     19 O1         -0.3720    0.0431    8.8608 O.2       1 <0>        -0.5088
     20 C16         1.6548   -1.0138    9.4478 C.3       1 <0>         0.1269
     21 C17         1.9292   -2.4586    9.0257 C.3       1 <0>        -0.0757
     22 C18         2.9794   -3.0545    9.9273 C.2       1 <0>         0.0490
     23 C19         2.7602   -3.6305   11.1247 C.2       1 <0>         0.0415
     24 N2          3.9791   -4.0340   11.5992 N.pl3     1 <0>        -0.5021
     25 C20         4.9014   -3.6902   10.6746 C.cat     1 <0>         0.3126
     26 N3          4.2957   -3.1094    9.6753 N.pl3     1 <0>        -0.4661
     27 N4          1.0667   -1.0004   10.7895 N.am      1 <0>        -0.7078
     28 C21         1.8645   -1.0298   11.8753 C.2       1 <0>         0.4957
     29 O2          3.0694   -1.0673   11.7417 O.2       1 <0>        -0.5464
     30 C22         1.2596   -1.0159   13.2555 C.3       1 <0>         0.0775
     31 C23         0.6811    0.3706   13.5449 C.3       1 <0>        -0.0621
     32 C24        -0.0310    0.3506   14.8729 C.ar      1 <0>        -0.0783
     33 C25        -1.3735    0.0265   14.9324 C.ar      1 <0>        -0.1202
     34 C26        -2.0268    0.0081   16.1505 C.ar      1 <0>        -0.1207
     35 C27        -1.3375    0.3135   17.3091 C.ar      1 <0>        -0.1176
     36 C28         0.0052    0.6368   17.2497 C.ar      1 <0>        -0.1215
     37 C29         0.6595    0.6509   16.0321 C.ar      1 <0>        -0.0865
     38 N5          2.2961   -1.3310   14.2476 N.3       1 <0>        -0.6538
     39 C30         2.3733   -2.7783   14.4868 C.3       1 <0>         0.0669
     40 C31         3.3557   -3.0552   15.6266 C.3       1 <0>        -0.0983
     41 C32         3.3432   -4.5485   15.9592 C.3       1 <0>        -0.1485
     42 C33         4.7645   -2.6400   15.1978 C.3       1 <0>        -0.1450
     43 O3          1.9776    1.0722    4.7950 O.3       1 <0>        -0.5516
     44 O4         -1.0827    2.9435    5.5412 O.3       1 <0>        -0.5490
     45 H3          1.5178    5.1956    2.0925 H         1 <0>         0.0540
     46 H4         -0.0379    5.9985    1.7712 H         1 <0>         0.0574
     47 H5          0.7805    6.2367    3.3338 H         1 <0>         0.0535
     48 H6         -1.0629    4.6513    3.6263 H         1 <0>         0.0765
     49 H7          0.3406    3.0330    1.4519 H         1 <0>         0.0539
     50 H8         -1.0861    2.5088    2.3782 H         1 <0>         0.0535
     51 H9         -1.2056    3.8957    1.2689 H         1 <0>         0.0573
     52 H10         1.6121    3.1840    3.5610 H         1 <0>         0.0803
     53 H11         1.0760    4.2665    4.8684 H         1 <0>         0.0651
     54 H12        -0.7083    0.8331    6.7885 H         1 <0>         0.1236
     55 H13        -0.8717    0.0444    4.3889 H         1 <0>         0.0839
     56 H14         0.5233   -1.0164    4.7004 H         1 <0>         0.0692
     57 H15        -2.0561   -1.0616    6.3268 H         1 <0>         0.0748
     58 H16         0.3212   -2.9679    6.1511 H         1 <0>         0.0557
     59 H17        -0.0257   -1.8633    7.5030 H         1 <0>         0.0697
     60 H18        -0.8326   -4.1554    7.9970 H         1 <0>         0.0526
     61 H19        -2.1907   -3.0103    7.8846 H         1 <0>         0.0631
     62 H20        -1.2328   -4.8600    5.6535 H         1 <0>         0.0593
     63 H21        -2.6868   -5.1033    6.6509 H         1 <0>         0.0611
     64 H22        -3.2632   -4.0583    4.4774 H         1 <0>         0.0637
     65 H23        -3.6101   -2.9536    5.8293 H         1 <0>         0.0628
     66 H24        -2.4563   -1.7662    3.9833 H         1 <0>         0.0639
     67 H25        -1.0982   -2.9113    4.0957 H         1 <0>         0.0607
     68 H26         1.8471   -0.6858    6.8459 H         1 <0>         0.4022
     69 H27         2.5898   -0.4536    9.4553 H         1 <0>         0.1223
     70 H28         1.0108   -3.0405    9.1035 H         1 <0>         0.1232
     71 H29         2.2835   -2.4749    7.9950 H         1 <0>         0.1107
     72 H30         4.1487   -4.4829   12.4422 H         1 <0>         0.4629
     73 H31         1.8061   -3.7507   11.6162 H         1 <0>         0.2118
     74 H32         5.9638   -3.8700   10.7482 H         1 <0>         0.2640
     75 H33         0.1031   -0.9703   10.8964 H         1 <0>         0.4200
     76 H34         0.4650   -1.7600   13.3114 H         1 <0>         0.1058
     77 H35         1.4889    1.1018   13.5768 H         1 <0>         0.0801
     78 H36        -0.0235    0.6417   12.7588 H         1 <0>         0.0809
     79 H37        -1.9121   -0.2121   14.0271 H         1 <0>         0.1173
     80 H38        -3.0758   -0.2444   16.1969 H         1 <0>         0.1209
     81 H39        -1.8481    0.2999   18.2607 H         1 <0>         0.1206
     82 H40         0.5437    0.8757   18.1549 H         1 <0>         0.1204
     83 H41         1.7094    0.8999   15.9861 H         1 <0>         0.1209
     84 H42         3.1918   -0.9630   13.9641 H         1 <0>         0.3567
     85 H43         1.3870   -3.1550   14.7577 H         1 <0>         0.0778
     86 H44         2.7171   -3.2784   13.5813 H         1 <0>         0.0088
     87 H45         3.0609   -2.4843   16.5071 H         1 <0>         0.0893
     88 H46         3.6380   -5.1194   15.0787 H         1 <0>         0.0440
     89 H47         4.0431   -4.7458   16.7713 H         1 <0>         0.0642
     90 H48         2.3396   -4.8443   16.2647 H         1 <0>         0.0602
     91 H49         5.0593   -3.2109   14.3173 H         1 <0>         0.0361
     92 H50         4.7734   -1.5761   14.9608 H         1 <0>         0.0598
     93 H51         5.4644   -2.8372   16.0098 H         1 <0>         0.0625
     94 H52         1.6763    0.4981    4.0775 H         1 <0>         0.3770
     95 H53        -0.7814    3.5176    6.2587 H         1 <0>         0.3768
     96 H54         4.7292   -2.7692    8.8770 H         1 <0>         0.4624
@<TRIPOS>BOND
     1    1    2 1
     2    1   45 1
     3    1   46 1
     4    1   47 1
     5    2    3 1
     6    2    4 1
     7    2   48 1
     8    3   49 1
     9    3   50 1
    10    3   51 1
    11    4    5 1
    12    4   52 1
    13    4   53 1
    14    5    6 1
    15    5    7 1
    16    5   44 1
    17    7    8 1
    18    7    9 1
    19    7   43 1
    20    9   10 1
    21    9   17 1
    22    9   54 1
    23   10   11 1
    24   10   55 1
    25   10   56 1
    26   11   16 1
    27   11   12 1
    28   11   57 1
    29   12   13 1
    30   12   58 1
    31   12   59 1
    32   13   14 1
    33   13   60 1
    34   13   61 1
    35   14   15 1
    36   14   62 1
    37   14   63 1
    38   15   16 1
    39   15   64 1
    40   15   65 1
    41   16   66 1
    42   16   67 1
    43   17   18 am
    44   17   68 1
    45   18   19 2
    46   18   20 1
    47   20   21 1
    48   20   27 1
    49   20   69 1
    50   21   70 1
    51   21   71 1
    52   21   22 1
    53   22   23 2
    54   22   26 1
    55   23   24 1
    56   23   73 1
    57   24   25 1
    58   24   72 1
    59   25   74 1
    60   25   26 2
    61   26   96 1
    62   27   28 am
    63   27   75 1
    64   28   29 2
    65   28   30 1
    66   30   31 1
    67   30   38 1
    68   30   76 1
    69   31   32 1
    70   31   77 1
    71   31   78 1
    72   32   37 ar
    73   32   33 ar
    74   33   34 ar
    75   33   79 1
    76   34   35 ar
    77   34   80 1
    78   35   36 ar
    79   35   81 1
    80   36   37 ar
    81   36   82 1
    82   37   83 1
    83   38   39 1
    84   38   84 1
    85   39   40 1
    86   39   85 1
    87   39   86 1
    88   40   41 1
    89   40   42 1
    90   40   87 1
    91   41   88 1
    92   41   89 1
    93   41   90 1
    94   42   91 1
    95   42   92 1
    96   42   93 1
    97   43   94 1
    98   44   95 1
@<TRIPOS>MOLECULE
CHEMBL73278__20
   96    98     0     0     0
SMALL
USER_CHARGES

@<TRIPOS>ATOM
      1 C1          0.8078   -0.6724   -3.8556 C.3       1 <0>        -0.1499
      2 C2          0.5964   -1.6363   -2.6864 C.3       1 <0>        -0.0945
      3 C3          1.1331   -1.0040   -1.4007 C.3       1 <0>        -0.1507
      4 C4         -0.8976   -1.9254   -2.5275 C.3       1 <0>        -0.1430
      5 C5         -1.0995   -2.9836   -1.4411 C.3       1 <0>         0.0750
      6 H1         -0.6201   -2.6541   -0.5193 H         1 <0>         0.1079
      7 C6         -2.5964   -3.1824   -1.1946 C.3       1 <0>         0.0674
      8 H2         -3.0757   -3.5119   -2.1164 H         1 <0>         0.1015
      9 C7         -2.7983   -4.2406   -0.1082 C.3       1 <0>         0.1120
     10 C8         -2.2348   -3.7246    1.2174 C.3       1 <0>        -0.1347
     11 C9         -2.2557   -4.8505    2.2532 C.3       1 <0>        -0.0790
     12 C10        -3.7047   -5.2334    2.5610 C.3       1 <0>        -0.1301
     13 C11        -3.7256   -6.3593    3.5968 C.3       1 <0>        -0.1207
     14 C12        -3.0399   -5.8849    4.8796 C.3       1 <0>        -0.1203
     15 C13        -1.5909   -5.5019    4.5718 C.3       1 <0>        -0.1210
     16 C14        -1.5700   -4.3761    3.5360 C.3       1 <0>        -0.1156
     17 N1         -4.2288   -4.5175    0.0440 N.am      1 <0>        -0.7049
     18 C15        -4.7124   -5.7424   -0.2428 C.2       1 <0>         0.5148
     19 O1         -3.9736   -6.5987   -0.6808 O.2       1 <0>        -0.5242
     20 C16        -6.1710   -6.0479   -0.0191 C.3       1 <0>         0.1333
     21 C17        -6.5121   -5.8528    1.4595 C.3       1 <0>        -0.0604
     22 C18        -7.9938   -6.0384    1.6620 C.2       1 <0>        -0.0142
     23 C19        -8.6380   -7.2056    1.8529 C.2       1 <0>        -0.0229
     24 N2         -9.9454   -6.9401    1.9917 N.2       1 <0>        -0.4886
     25 C20       -10.1359   -5.6528    1.8941 C.2       1 <0>         0.2003
     26 N3         -8.9430   -5.0526    1.6932 N.pl3     1 <0>        -0.5561
     27 N4         -6.4441   -7.4348   -0.4043 N.am      1 <0>        -0.6873
     28 C21        -7.6874   -7.7985   -0.7763 C.2       1 <0>         0.5124
     29 O2         -8.5801   -6.9778   -0.7921 O.2       1 <0>        -0.4984
     30 C22        -7.9682   -9.2251   -1.1726 C.3       1 <0>         0.0129
     31 C23        -8.1356  -10.0802    0.0851 C.3       1 <0>        -0.0963
     32 C24        -8.2941  -11.5264   -0.3082 C.ar      1 <0>        -0.1263
     33 C25        -9.5531  -12.0421   -0.5526 C.ar      1 <0>        -0.1380
     34 C26        -9.6985  -13.3686   -0.9134 C.ar      1 <0>        -0.1060
     35 C27        -8.5849  -14.1793   -1.0301 C.ar      1 <0>        -0.1015
     36 C28        -7.3258  -13.6633   -0.7865 C.ar      1 <0>        -0.1052
     37 C29        -7.1800  -12.3356   -0.4299 C.ar      1 <0>        -0.1028
     38 N5         -9.2017   -9.2784   -1.9686 N.4       1 <0>        -0.4939
     39 C30        -9.0006   -8.5565   -3.2321 C.3       1 <0>        -0.0141
     40 C31       -10.2853   -8.6120   -4.0612 C.3       1 <0>        -0.1140
     41 C32       -11.3955   -7.8518   -3.3330 C.3       1 <0>        -0.1667
     42 C33       -10.0386   -7.9693   -5.4276 C.3       1 <0>        -0.1506
     43 O3         -3.1774   -1.9476   -0.7707 O.3       1 <0>        -0.5508
     44 O4         -0.5185   -4.2184   -1.8650 O.3       1 <0>        -0.5490
     45 H3          1.8722   -0.4664   -3.9689 H         1 <0>         0.0571
     46 H4          0.4254   -1.1228   -4.7716 H         1 <0>         0.0530
     47 H5          0.2764    0.2589   -3.6594 H         1 <0>         0.0543
     48 H6          1.1279   -2.5675   -2.8827 H         1 <0>         0.0764
     49 H7          0.6017   -0.0727   -1.2045 H         1 <0>         0.0542
     50 H8          0.9826   -1.6907   -0.5678 H         1 <0>         0.0534
     51 H9          2.1975   -0.7980   -1.5140 H         1 <0>         0.0571
     52 H10        -1.4166   -1.0099   -2.2439 H         1 <0>         0.0806
     53 H11        -1.2990   -2.2930   -3.4719 H         1 <0>         0.0643
     54 H12        -2.2792   -5.1562   -0.3919 H         1 <0>         0.1227
     55 H13        -1.2093   -3.3863    1.0691 H         1 <0>         0.0844
     56 H14        -2.8440   -2.8932    1.5720 H         1 <0>         0.0706
     57 H15        -1.7269   -5.7177    1.8578 H         1 <0>         0.0726
     58 H16        -4.2336   -4.3662    2.9563 H         1 <0>         0.0582
     59 H17        -4.1932   -5.5714    1.6471 H         1 <0>         0.0722
     60 H18        -4.7579   -6.6321    3.8161 H         1 <0>         0.0571
     61 H19        -3.1967   -7.2265    3.2015 H         1 <0>         0.0605
     62 H20        -3.5688   -5.0176    5.2749 H         1 <0>         0.0604
     63 H21        -3.0548   -6.6870    5.6176 H         1 <0>         0.0611
     64 H22        -1.1024   -5.1640    5.4857 H         1 <0>         0.0635
     65 H23        -1.0621   -6.3692    4.1765 H         1 <0>         0.0617
     66 H24        -0.5378   -4.1033    3.3167 H         1 <0>         0.0633
     67 H25        -2.0989   -3.5088    3.9313 H         1 <0>         0.0616
     68 H26        -4.8279   -3.8192    0.3511 H         1 <0>         0.4057
     69 H27        -6.7799   -5.3762   -0.6242 H         1 <0>         0.1216
     70 H28        -5.9692   -6.5848    2.0573 H         1 <0>         0.1053
     71 H29        -6.2263   -4.8474    1.7687 H         1 <0>         0.0939
     72 H30        -8.1818   -8.1839    1.8880 H         1 <0>         0.1540
     73 H31       -11.0892   -5.1503    1.9657 H         1 <0>         0.2061
     74 H32        -5.7300   -8.0912   -0.3917 H         1 <0>         0.4189
     75 H33        -7.1370   -9.6082   -1.7644 H         1 <0>         0.1616
     76 H34        -7.2556   -9.9704    0.7189 H         1 <0>         0.1240
     77 H35        -9.0201   -9.7533    0.6317 H         1 <0>         0.1130
     78 H36       -10.4232  -11.4088   -0.4615 H         1 <0>         0.1232
     79 H37       -10.6822  -13.7718   -1.1037 H         1 <0>         0.1327
     80 H38        -8.6985  -15.2158   -1.3112 H         1 <0>         0.1326
     81 H39        -6.4558  -14.2967   -0.8773 H         1 <0>         0.1332
     82 H40        -6.1960  -11.9315   -0.2432 H         1 <0>         0.1308
     83 H41        -9.4344  -10.2405   -2.1643 H         1 <0>         0.4304
     84 H42        -8.7493   -7.5172   -3.0207 H         1 <0>         0.1361
     85 H43        -8.1876   -9.0207   -3.7903 H         1 <0>         0.1311
     86 H44       -10.5853   -9.6511   -4.1973 H         1 <0>         0.0932
     87 H45       -12.3108   -7.8914   -3.9237 H         1 <0>         0.0820
     88 H46       -11.5713   -8.3097   -2.3596 H         1 <0>         0.0516
     89 H47       -11.0955   -6.8128   -3.1969 H         1 <0>         0.0736
     90 H48        -9.2477   -8.5109   -5.9464 H         1 <0>         0.0671
     91 H49       -10.9539   -8.0089   -6.0183 H         1 <0>         0.0787
     92 H50        -9.7386   -6.9303   -5.2915 H         1 <0>         0.0670
     93 H51        -2.7982   -1.5943    0.0457 H         1 <0>         0.3772
     94 H52        -0.8976   -4.5717   -2.6815 H         1 <0>         0.3757
     95 H53        -9.9543   -8.8488   -1.4519 H         1 <0>         0.4336
     96 H54        -8.7878   -4.1008    1.5889 H         1 <0>         0.4197
@<TRIPOS>BOND
     1    1    2 1
     2    1   45 1
     3    1   46 1
     4    1   47 1
     5    2    3 1
     6    2    4 1
     7    2   48 1
     8    3   49 1
     9    3   50 1
    10    3   51 1
    11    4    5 1
    12    4   52 1
    13    4   53 1
    14    5    6 1
    15    5    7 1
    16    5   44 1
    17    7    8 1
    18    7    9 1
    19    7   43 1
    20    9   10 1
    21    9   17 1
    22    9   54 1
    23   10   11 1
    24   10   55 1
    25   10   56 1
    26   11   16 1
    27   11   12 1
    28   11   57 1
    29   12   13 1
    30   12   58 1
    31   12   59 1
    32   13   14 1
    33   13   60 1
    34   13   61 1
    35   14   15 1
    36   14   62 1
    37   14   63 1
    38   15   16 1
    39   15   64 1
    40   15   65 1
    41   16   66 1
    42   16   67 1
    43   17   18 am
    44   17   68 1
    45   18   19 2
    46   18   20 1
    47   20   21 1
    48   20   27 1
    49   20   69 1
    50   21   70 1
    51   21   71 1
    52   21   22 1
    53   22   23 2
    54   22   26 1
    55   23   24 1
    56   23   72 1
    57   24   25 2
    58   25   73 1
    59   25   26 1
    60   26   96 1
    61   27   28 am
    62   27   74 1
    63   28   29 2
    64   28   30 1
    65   30   31 1
    66   30   38 1
    67   30   75 1
    68   31   32 1
    69   31   76 1
    70   31   77 1
    71   32   37 ar
    72   32   33 ar
    73   33   34 ar
    74   33   78 1
    75   34   35 ar
    76   34   79 1
    77   35   36 ar
    78   35   80 1
    79   36   37 ar
    80   36   81 1
    81   37   82 1
    82   38   39 1
    83   38   83 1
    84   38   95 1
    85   39   40 1
    86   39   84 1
    87   39   85 1
    88   40   41 1
    89   40   42 1
    90   40   86 1
    91   41   87 1
    92   41   88 1
    93   41   89 1
    94   42   90 1
    95   42   91 1
    96   42   92 1
    97   43   93 1
    98   44   94 1
@<TRIPOS>MOLECULE
CHEMBL73278__21
   96    98     0     0     0
SMALL
USER_CHARGES

@<TRIPOS>ATOM
      1 C1         -0.7489    4.4864    1.1311 C.3       1 <0>        -0.1500
      2 C2         -1.3053    3.3133    1.9404 C.3       1 <0>        -0.0947
      3 C3         -1.7911    2.2203    0.9863 C.3       1 <0>        -0.1507
      4 C4         -0.2065    2.7502    2.8439 C.3       1 <0>        -0.1431
      5 C5         -0.7880    1.6421    3.7243 C.3       1 <0>         0.0749
      6 H1         -1.2764    0.8974    3.0958 H         1 <0>         0.1082
      7 C6          0.3382    0.9788    4.5196 C.3       1 <0>         0.0668
      8 H2          0.8267    1.7235    5.1480 H         1 <0>         0.1027
      9 C7         -0.2433   -0.1292    5.4000 C.3       1 <0>         0.1115
     10 C8         -0.8189   -1.2356    4.5137 C.3       1 <0>        -0.1336
     11 C9         -1.5714   -2.2454    5.3825 C.3       1 <0>        -0.0788
     12 C10        -0.5786   -2.9827    6.2835 C.3       1 <0>        -0.1268
     13 C11        -1.3310   -3.9925    7.1523 C.3       1 <0>        -0.1198
     14 C12        -2.0512   -5.0008    6.2548 C.3       1 <0>        -0.1200
     15 C13        -3.0440   -4.2635    5.3539 C.3       1 <0>        -0.1219
     16 C14        -2.2916   -3.2537    4.4850 C.3       1 <0>        -0.1155
     17 N1          0.8140   -0.6840    6.2488 N.am      1 <0>        -0.7098
     18 C15         0.6943   -0.6388    7.5905 C.2       1 <0>         0.5145
     19 O1         -0.3297   -0.2287    8.0945 O.2       1 <0>        -0.5103
     20 C16         1.8330   -1.0979    8.4644 C.3       1 <0>         0.1301
     21 C17         2.1414   -2.5673    8.1702 C.3       1 <0>        -0.0757
     22 C18         3.3570   -2.9920    8.9532 C.2       1 <0>         0.0454
     23 C19         3.3652   -3.4269   10.2276 C.2       1 <0>         0.0420
     24 N2          4.6679   -3.7046   10.5430 N.pl3     1 <0>        -0.4988
     25 C20         5.4110   -3.4295    9.4495 C.cat     1 <0>         0.3134
     26 N3          4.6196   -3.0085    8.5010 N.pl3     1 <0>        -0.4676
     27 N4          1.4578   -0.9502    9.8729 N.am      1 <0>        -0.7172
     28 C21         2.4126   -0.8040   10.8128 C.2       1 <0>         0.5253
     29 O2          3.5824   -0.7947   10.4927 O.2       1 <0>        -0.5184
     30 C22         2.0267   -0.6521   12.2616 C.3       1 <0>         0.0739
     31 C23         1.8401   -2.0357   12.8875 C.3       1 <0>        -0.0758
     32 C24         1.3358   -1.8845   14.2995 C.ar      1 <0>        -0.1031
     33 C25         2.2327   -1.7807   15.3463 C.ar      1 <0>        -0.1204
     34 C26         1.7701   -1.6420   16.6416 C.ar      1 <0>        -0.1121
     35 C27         0.4107   -1.6066   16.8900 C.ar      1 <0>        -0.1114
     36 C28        -0.4861   -1.7095   15.8430 C.ar      1 <0>        -0.1120
     37 C29        -0.0235   -1.8439   14.5473 C.ar      1 <0>        -0.1120
     38 N5          3.0866    0.0703   12.9776 N.3       1 <0>        -0.6666
     39 C30         2.8942    1.5232   12.8766 C.3       1 <0>         0.0634
     40 C31         4.0889    2.2409   13.5078 C.3       1 <0>        -0.0901
     41 C32         3.9495    3.7493   13.2927 C.3       1 <0>        -0.1499
     42 C33         4.1296    1.9413   15.0076 C.3       1 <0>        -0.1507
     43 O3          1.2928    0.4178    3.6163 O.3       1 <0>        -0.5513
     44 O4         -1.7426    2.2032    4.6276 O.3       1 <0>        -0.5492
     45 H3          0.1371    4.1630    0.5847 H         1 <0>         0.0540
     46 H4         -1.5046    4.8322    0.4258 H         1 <0>         0.0574
     47 H5         -0.4826    5.2997    1.8061 H         1 <0>         0.0534
     48 H6         -2.1386    3.6574    2.5531 H         1 <0>         0.0764
     49 H7         -0.9578    1.8762    0.3736 H         1 <0>         0.0540
     50 H8         -2.1875    1.3845    1.5629 H         1 <0>         0.0534
     51 H9         -2.5740    2.6214    0.3427 H         1 <0>         0.0572
     52 H10         0.5959    2.3423    2.2291 H         1 <0>         0.0805
     53 H11         0.1884    3.5462    3.4751 H         1 <0>         0.0650
     54 H12        -1.0342    0.2824    6.0270 H         1 <0>         0.1231
     55 H13        -1.5045   -0.7993    3.7872 H         1 <0>         0.0835
     56 H14        -0.0074   -1.7405    3.9897 H         1 <0>         0.0694
     57 H15        -2.3016   -1.7213    5.9991 H         1 <0>         0.0744
     58 H16         0.1517   -3.5068    5.6669 H         1 <0>         0.0560
     59 H17        -0.0655   -2.2644    6.9229 H         1 <0>         0.0704
     60 H18        -0.6237   -4.5178    7.7942 H         1 <0>         0.0533
     61 H19        -2.0612   -3.4684    7.7689 H         1 <0>         0.0627
     62 H20        -1.3210   -5.5249    5.6382 H         1 <0>         0.0595
     63 H21        -2.5873   -5.7203    6.8738 H         1 <0>         0.0609
     64 H22        -3.5572   -4.9819    4.7144 H         1 <0>         0.0635
     65 H23        -3.7743   -3.7394    5.9704 H         1 <0>         0.0625
     66 H24        -2.9989   -2.7284    3.8432 H         1 <0>         0.0635
     67 H25        -1.5614   -3.7778    3.8684 H         1 <0>         0.0608
     68 H26         1.6002   -1.0839    5.8452 H         1 <0>         0.4025
     69 H27         2.7160   -0.4929    8.2583 H         1 <0>         0.1216
     70 H28         1.2895   -3.1824    8.4598 H         1 <0>         0.1226
     71 H29         2.3339   -2.6918    7.1045 H         1 <0>         0.1097
     72 H30         4.9960   -4.0370   11.3932 H         1 <0>         0.4652
     73 H31         2.5086   -3.5354   10.8764 H         1 <0>         0.2119
     74 H32         6.4821   -3.5430    9.3714 H         1 <0>         0.2637
     75 H33         0.5223   -0.9577   10.1289 H         1 <0>         0.4169
     76 H34         1.0939   -0.0926   12.3324 H         1 <0>         0.0747
     77 H35         1.1175   -2.6047   12.3025 H         1 <0>         0.0845
     78 H36         2.7947   -2.5619   12.8970 H         1 <0>         0.0810
     79 H37         3.2947   -1.8084   15.1523 H         1 <0>         0.1232
     80 H38         2.4707   -1.5616   17.4595 H         1 <0>         0.1269
     81 H39         0.0493   -1.4990   17.9020 H         1 <0>         0.1269
     82 H40        -1.5482   -1.6822   16.0371 H         1 <0>         0.1271
     83 H41        -0.7241   -1.9206   13.7290 H         1 <0>         0.1233
     84 H42         3.1354   -0.2218   13.9421 H         1 <0>         0.3547
     85 H43         2.8129    1.8068   11.8273 H         1 <0>         0.0682
     86 H44         1.9817    1.8061   13.4013 H         1 <0>         0.0355
     87 H45         5.0103    1.8911   13.0423 H         1 <0>         0.0786
     88 H46         3.0281    4.0991   13.7582 H         1 <0>         0.0555
     89 H47         4.8006    4.2606   13.7424 H         1 <0>         0.0610
     90 H48         3.9205    3.9627   12.2242 H         1 <0>         0.0543
     91 H49         3.2082    2.2910   15.4732 H         1 <0>         0.0537
     92 H50         4.2290    0.8667   15.1609 H         1 <0>         0.0523
     93 H51         4.9808    2.4526   15.4573 H         1 <0>         0.0599
     94 H52         0.9271   -0.2542    3.0249 H         1 <0>         0.3769
     95 H53        -1.3768    2.8751    5.2190 H         1 <0>         0.3766
     96 H54         4.9005   -2.7470    7.6101 H         1 <0>         0.4617
@<TRIPOS>BOND
     1    1    2 1
     2    1   45 1
     3    1   46 1
     4    1   47 1
     5    2    3 1
     6    2    4 1
     7    2   48 1
     8    3   49 1
     9    3   50 1
    10    3   51 1
    11    4    5 1
    12    4   52 1
    13    4   53 1
    14    5    6 1
    15    5    7 1
    16    5   44 1
    17    7    8 1
    18    7    9 1
    19    7   43 1
    20    9   10 1
    21    9   17 1
    22    9   54 1
    23   10   11 1
    24   10   55 1
    25   10   56 1
    26   11   16 1
    27   11   12 1
    28   11   57 1
    29   12   13 1
    30   12   58 1
    31   12   59 1
    32   13   14 1
    33   13   60 1
    34   13   61 1
    35   14   15 1
    36   14   62 1
    37   14   63 1
    38   15   16 1
    39   15   64 1
    40   15   65 1
    41   16   66 1
    42   16   67 1
    43   17   18 am
    44   17   68 1
    45   18   19 2
    46   18   20 1
    47   20   21 1
    48   20   27 1
    49   20   69 1
    50   21   70 1
    51   21   71 1
    52   21   22 1
    53   22   23 2
    54   22   26 1
    55   23   24 1
    56   23   73 1
    57   24   25 1
    58   24   72 1
    59   25   74 1
    60   25   26 2
    61   26   96 1
    62   27   28 am
    63   27   75 1
    64   28   29 2
    65   28   30 1
    66   30   31 1
    67   30   38 1
    68   30   76 1
    69   31   32 1
    70   31   77 1
    71   31   78 1
    72   32   37 ar
    73   32   33 ar
    74   33   34 ar
    75   33   79 1
    76   34   35 ar
    77   34   80 1
    78   35   36 ar
    79   35   81 1
    80   36   37 ar
    81   36   82 1
    82   37   83 1
    83   38   39 1
    84   38   84 1
    85   39   40 1
    86   39   85 1
    87   39   86 1
    88   40   41 1
    89   40   42 1
    90   40   87 1
    91   41   88 1
    92   41   89 1
    93   41   90 1
    94   42   91 1
    95   42   92 1
    96   42   93 1
    97   43   94 1
    98   44   95 1
@<TRIPOS>MOLECULE
CHEMBL73278__22
   96    98     0     0     0
SMALL
USER_CHARGES

@<TRIPOS>ATOM
      1 C1          0.1857    3.7177   -0.8540 C.3       1 <0>        -0.1498
      2 C2         -0.3431    2.6447   -1.8079 C.3       1 <0>        -0.0942
      3 C3          0.6679    1.4999   -1.8986 C.3       1 <0>        -0.1510
      4 C4         -1.6760    2.1076   -1.2829 C.3       1 <0>        -0.1431
      5 C5         -2.2529    1.1062   -2.2856 C.3       1 <0>         0.0747
      6 H1         -1.5116    0.3354   -2.4966 H         1 <0>         0.1083
      7 C6         -3.5077    0.4593   -1.6958 C.3       1 <0>         0.0673
      8 H2         -4.2489    1.2301   -1.4848 H         1 <0>         0.1016
      9 C7         -4.0845   -0.5421   -2.6985 C.3       1 <0>         0.1122
     10 C8         -3.0936   -1.6904   -2.9000 C.3       1 <0>        -0.1348
     11 C9         -3.5774   -2.5872   -4.0412 C.3       1 <0>        -0.0772
     12 C10        -4.8688   -3.2931   -3.6228 C.3       1 <0>        -0.1278
     13 C11        -5.3526   -4.1900   -4.7641 C.3       1 <0>        -0.1177
     14 C12        -4.2804   -5.2342   -5.0817 C.3       1 <0>        -0.1205
     15 C13        -2.9891   -4.5284   -5.5001 C.3       1 <0>        -0.1204
     16 C14        -2.5053   -3.6315   -4.3589 C.3       1 <0>        -0.1160
     17 N1         -5.3497   -1.0733   -2.1854 N.am      1 <0>        -0.7063
     18 C15        -6.4852   -0.9106   -2.8929 C.2       1 <0>         0.5162
     19 O1         -6.4451   -0.4120   -3.9977 O.2       1 <0>        -0.5306
     20 C16        -7.8047   -1.3482   -2.3111 C.3       1 <0>         0.1355
     21 C17        -7.7615   -2.8500   -2.0217 C.3       1 <0>        -0.0443
     22 C18        -9.0334   -3.2646   -1.3278 C.2       1 <0>         0.0043
     23 C19        -9.8746   -4.2357   -1.7314 C.2       1 <0>        -0.0572
     24 N2        -10.8939   -4.2812   -0.8189 N.pl3     1 <0>        -0.5716
     25 C20       -10.6398   -3.3357    0.1113 C.2       1 <0>         0.1919
     26 N3         -9.5229   -2.7352   -0.1969 N.2       1 <0>        -0.4527
     27 N4         -8.8778   -1.0660   -3.2677 N.am      1 <0>        -0.6849
     28 C21       -10.1402   -0.8869   -2.8308 C.2       1 <0>         0.5032
     29 O2        -10.3878   -0.9595   -1.6457 O.2       1 <0>        -0.4862
     30 C22       -11.2440   -0.5966   -3.8148 C.3       1 <0>         0.0099
     31 C23       -11.6973   -1.9015   -4.4724 C.3       1 <0>        -0.0877
     32 C24       -12.7135   -1.5979   -5.5430 C.ar      1 <0>        -0.1282
     33 C25       -14.0585   -1.5539   -5.2268 C.ar      1 <0>        -0.1408
     34 C26       -14.9907   -1.2754   -6.2089 C.ar      1 <0>        -0.1060
     35 C27       -14.5778   -1.0406   -7.5071 C.ar      1 <0>        -0.1011
     36 C28       -13.2328   -1.0837   -7.8231 C.ar      1 <0>        -0.1037
     37 C29       -12.3003   -1.3579   -6.8402 C.ar      1 <0>        -0.1020
     38 N5        -12.3783    0.0170   -3.1112 N.4       1 <0>        -0.4929
     39 C30       -11.9755    1.3266   -2.5815 C.3       1 <0>        -0.0139
     40 C31       -13.1568    1.9656   -1.8487 C.3       1 <0>        -0.1132
     41 C32       -12.7035    3.2706   -1.1911 C.3       1 <0>        -0.1508
     42 C33       -14.2775    2.2604   -2.8477 C.3       1 <0>        -0.1710
     43 O3         -3.1691   -0.2202   -0.4852 O.3       1 <0>        -0.5494
     44 O4         -2.5914    1.7857   -3.4963 O.3       1 <0>        -0.5495
     45 H3          1.1748    4.0388   -1.1806 H         1 <0>         0.0568
     46 H4         -0.4923    4.5712   -0.8555 H         1 <0>         0.0529
     47 H5          0.2512    3.3076    0.1538 H         1 <0>         0.0544
     48 H6         -0.4904    3.0785   -2.7970 H         1 <0>         0.0757
     49 H7          0.8152    1.0661   -0.9095 H         1 <0>         0.0545
     50 H8          0.2912    0.7355   -2.5782 H         1 <0>         0.0538
     51 H9          1.6175    1.8825   -2.2726 H         1 <0>         0.0566
     52 H10        -1.5162    1.6119   -0.3254 H         1 <0>         0.0813
     53 H11        -2.3746    2.9341   -1.1521 H         1 <0>         0.0645
     54 H12        -4.2600   -0.0423   -3.6512 H         1 <0>         0.1211
     55 H13        -2.1127   -1.2846   -3.1476 H         1 <0>         0.0819
     56 H14        -3.0239   -2.2753   -1.9828 H         1 <0>         0.0706
     57 H15        -3.7660   -1.9793   -4.9261 H         1 <0>         0.0721
     58 H16        -4.6802   -3.9010   -2.7379 H         1 <0>         0.0580
     59 H17        -5.6326   -2.5492   -3.3965 H         1 <0>         0.0733
     60 H18        -6.2726   -4.6929   -4.4660 H         1 <0>         0.0546
     61 H19        -5.5411   -3.5821   -5.6489 H         1 <0>         0.0591
     62 H20        -4.0919   -5.8421   -4.1968 H         1 <0>         0.0606
     63 H21        -4.6251   -5.8732   -5.8947 H         1 <0>         0.0594
     64 H22        -2.2253   -5.2723   -5.7264 H         1 <0>         0.0625
     65 H23        -3.1776   -3.9204   -6.3850 H         1 <0>         0.0609
     66 H24        -1.5853   -3.1286   -4.6570 H         1 <0>         0.0623
     67 H25        -2.3167   -4.2394   -3.4740 H         1 <0>         0.0616
     68 H26        -5.3702   -1.5420   -1.3364 H         1 <0>         0.4083
     69 H27        -7.9915   -0.8049   -1.3848 H         1 <0>         0.1319
     70 H28        -7.6636   -3.3979   -2.9589 H         1 <0>         0.0877
     71 H29        -6.9087   -3.0720   -1.3802 H         1 <0>         0.0942
     72 H30       -11.6562   -4.8807   -0.8369 H         1 <0>         0.4197
     73 H31        -9.7662   -4.8586   -2.6070 H         1 <0>         0.1691
     74 H32       -11.2566   -3.1158    0.9701 H         1 <0>         0.2024
     75 H33        -8.6798   -1.0079   -4.2155 H         1 <0>         0.4152
     76 H34       -10.8779    0.0879   -4.5800 H         1 <0>         0.1600
     77 H35       -10.8376   -2.4012   -4.9187 H         1 <0>         0.1241
     78 H36       -12.1450   -2.5511   -3.7202 H         1 <0>         0.1014
     79 H37       -14.3811   -1.7374   -4.2126 H         1 <0>         0.1202
     80 H38       -16.0415   -1.2417   -5.9620 H         1 <0>         0.1326
     81 H39       -15.3061   -0.8237   -8.2745 H         1 <0>         0.1333
     82 H40       -12.9102   -0.9005   -8.8374 H         1 <0>         0.1342
     83 H41       -11.2491   -1.3880   -7.0863 H         1 <0>         0.1316
     84 H42       -13.1476    0.1360   -3.7531 H         1 <0>         0.4280
     85 H43       -11.1443    1.1980   -1.8881 H         1 <0>         0.1397
     86 H44       -11.6661    1.9716   -3.4038 H         1 <0>         0.1303
     87 H45       -13.5230    1.2812   -1.0835 H         1 <0>         0.0949
     88 H46       -12.3374    3.9550   -1.9563 H         1 <0>         0.0673
     89 H47       -13.5451    3.7259   -0.6690 H         1 <0>         0.0783
     90 H48       -11.9051    3.0606   -0.4794 H         1 <0>         0.0690
     91 H49       -14.6005    1.3308   -3.3162 H         1 <0>         0.0489
     92 H50       -15.1191    2.7157   -2.3257 H         1 <0>         0.0849
     93 H51       -13.9114    2.9449   -3.6129 H         1 <0>         0.0730
     94 H52        -2.5127   -0.9213   -0.5979 H         1 <0>         0.3773
     95 H53        -3.2478    2.4868   -3.3835 H         1 <0>         0.3750
     96 H54       -12.6647   -0.5801   -2.3500 H         1 <0>         0.4305
@<TRIPOS>BOND
     1    1    2 1
     2    1   45 1
     3    1   46 1
     4    1   47 1
     5    2    3 1
     6    2    4 1
     7    2   48 1
     8    3   49 1
     9    3   50 1
    10    3   51 1
    11    4    5 1
    12    4   52 1
    13    4   53 1
    14    5    6 1
    15    5    7 1
    16    5   44 1
    17    7    8 1
    18    7    9 1
    19    7   43 1
    20    9   10 1
    21    9   17 1
    22    9   54 1
    23   10   11 1
    24   10   55 1
    25   10   56 1
    26   11   16 1
    27   11   12 1
    28   11   57 1
    29   12   13 1
    30   12   58 1
    31   12   59 1
    32   13   14 1
    33   13   60 1
    34   13   61 1
    35   14   15 1
    36   14   62 1
    37   14   63 1
    38   15   16 1
    39   15   64 1
    40   15   65 1
    41   16   66 1
    42   16   67 1
    43   17   18 am
    44   17   68 1
    45   18   19 2
    46   18   20 1
    47   20   21 1
    48   20   27 1
    49   20   69 1
    50   21   70 1
    51   21   71 1
    52   21   22 1
    53   22   23 2
    54   22   26 1
    55   23   24 1
    56   23   73 1
    57   24   25 1
    58   24   72 1
    59   25   74 1
    60   25   26 2
    61   27   28 am
    62   27   75 1
    63   28   29 2
    64   28   30 1
    65   30   31 1
    66   30   38 1
    67   30   76 1
    68   31   32 1
    69   31   77 1
    70   31   78 1
    71   32   37 ar
    72   32   33 ar
    73   33   34 ar
    74   33   79 1
    75   34   35 ar
    76   34   80 1
    77   35   36 ar
    78   35   81 1
    79   36   37 ar
    80   36   82 1
    81   37   83 1
    82   38   39 1
    83   38   84 1
    84   38   96 1
    85   39   40 1
    86   39   85 1
    87   39   86 1
    88   40   41 1
    89   40   42 1
    90   40   87 1
    91   41   88 1
    92   41   89 1
    93   41   90 1
    94   42   91 1
    95   42   92 1
    96   42   93 1
    97   43   94 1
    98   44   95 1
@<TRIPOS>MOLECULE
CHEMBL73278__23
   97    99     0     0     0
SMALL
USER_CHARGES

@<TRIPOS>ATOM
      1 C1          0.8078   -0.6724   -3.8556 C.3       1 <0>        -0.1508
      2 C2          0.5964   -1.6363   -2.6864 C.3       1 <0>        -0.0946
      3 C3          1.1331   -1.0040   -1.4007 C.3       1 <0>        -0.1511
      4 C4         -0.8976   -1.9254   -2.5275 C.3       1 <0>        -0.1427
      5 C5         -1.0995   -2.9836   -1.4411 C.3       1 <0>         0.0744
      6 H1         -0.6201   -2.6541   -0.5193 H         1 <0>         0.1089
      7 C6         -2.5964   -3.1824   -1.1946 C.3       1 <0>         0.0676
      8 H2         -3.0757   -3.5119   -2.1164 H         1 <0>         0.1021
      9 C7         -2.7983   -4.2406   -0.1082 C.3       1 <0>         0.1110
     10 C8         -2.2348   -3.7246    1.2174 C.3       1 <0>        -0.1361
     11 C9         -2.2557   -4.8505    2.2532 C.3       1 <0>        -0.0796
     12 C10        -3.7047   -5.2334    2.5610 C.3       1 <0>        -0.1296
     13 C11        -3.7256   -6.3593    3.5968 C.3       1 <0>        -0.1203
     14 C12        -3.0399   -5.8849    4.8796 C.3       1 <0>        -0.1209
     15 C13        -1.5909   -5.5019    4.5718 C.3       1 <0>        -0.1233
     16 C14        -1.5700   -4.3761    3.5360 C.3       1 <0>        -0.1171
     17 N1         -4.2288   -4.5175    0.0440 N.am      1 <0>        -0.7003
     18 C15        -4.7124   -5.7424   -0.2428 C.2       1 <0>         0.5115
     19 O1         -3.9736   -6.5987   -0.6808 O.2       1 <0>        -0.5113
     20 C16        -6.1710   -6.0479   -0.0191 C.3       1 <0>         0.1268
     21 C17        -6.5121   -5.8528    1.4595 C.3       1 <0>        -0.0845
     22 C18        -7.9939   -6.0384    1.6620 C.2       1 <0>         0.0513
     23 C19        -8.6257   -7.2125    1.8515 C.2       1 <0>         0.0187
     24 N2         -9.9572   -6.9275    1.9918 N.pl3     1 <0>        -0.5064
     25 C20       -10.0927   -5.5883    1.8830 C.cat     1 <0>         0.3257
     26 N3         -8.9138   -5.0627    1.6909 N.pl3     1 <0>        -0.4665
     27 N4         -6.4441   -7.4348   -0.4044 N.am      1 <0>        -0.6819
     28 C21        -7.6874   -7.7985   -0.7763 C.2       1 <0>         0.5147
     29 O2         -8.5801   -6.9778   -0.7921 O.2       1 <0>        -0.5304
     30 C22        -7.9682   -9.2251   -1.1726 C.3       1 <0>         0.0056
     31 C23        -8.1356  -10.0802    0.0851 C.3       1 <0>        -0.0921
     32 C24        -8.2941  -11.5264   -0.3082 C.ar      1 <0>        -0.1412
     33 C25        -9.5531  -12.0421   -0.5526 C.ar      1 <0>        -0.1412
     34 C26        -9.6985  -13.3687   -0.9134 C.ar      1 <0>        -0.1034
     35 C27        -8.5849  -14.1793   -1.0301 C.ar      1 <0>        -0.0922
     36 C28        -7.3258  -13.6633   -0.7865 C.ar      1 <0>        -0.1004
     37 C29        -7.1800  -12.3356   -0.4299 C.ar      1 <0>        -0.0993
     38 N5         -9.2017   -9.2784   -1.9686 N.4       1 <0>        -0.4937
     39 C30        -9.0006   -8.5565   -3.2321 C.3       1 <0>        -0.0157
     40 C31       -10.2853   -8.6120   -4.0612 C.3       1 <0>        -0.1118
     41 C32       -10.1180   -7.7569   -5.3189 C.3       1 <0>        -0.1530
     42 C33       -10.5705  -10.0604   -4.4635 C.3       1 <0>        -0.1739
     43 O3         -3.1774   -1.9476   -0.7707 O.3       1 <0>        -0.5513
     44 O4         -0.5185   -4.2184   -1.8650 O.3       1 <0>        -0.5484
     45 H3          1.8722   -0.4664   -3.9689 H         1 <0>         0.0589
     46 H4          0.4254   -1.1228   -4.7716 H         1 <0>         0.0533
     47 H5          0.2764    0.2589   -3.6594 H         1 <0>         0.0547
     48 H6          1.1279   -2.5675   -2.8827 H         1 <0>         0.0768
     49 H7          0.9826   -1.6907   -0.5678 H         1 <0>         0.0523
     50 H8          2.1975   -0.7980   -1.5140 H         1 <0>         0.0590
     51 H9          0.6017   -0.0727   -1.2045 H         1 <0>         0.0545
     52 H10        -1.4166   -1.0099   -2.2439 H         1 <0>         0.0808
     53 H11        -1.2990   -2.2930   -3.4719 H         1 <0>         0.0645
     54 H12        -2.2792   -5.1562   -0.3919 H         1 <0>         0.1253
     55 H13        -1.2093   -3.3863    1.0691 H         1 <0>         0.0893
     56 H14        -2.8440   -2.8932    1.5720 H         1 <0>         0.0719
     57 H15        -1.7269   -5.7177    1.8578 H         1 <0>         0.0749
     58 H16        -4.2336   -4.3662    2.9563 H         1 <0>         0.0588
     59 H17        -4.1932   -5.5714    1.6471 H         1 <0>         0.0650
     60 H18        -4.7579   -6.6321    3.8161 H         1 <0>         0.0507
     61 H19        -3.1967   -7.2265    3.2015 H         1 <0>         0.0633
     62 H20        -3.5688   -5.0176    5.2749 H         1 <0>         0.0608
     63 H21        -3.0548   -6.6870    5.6176 H         1 <0>         0.0629
     64 H22        -1.1024   -5.1640    5.4857 H         1 <0>         0.0670
     65 H23        -1.0621   -6.3692    4.1765 H         1 <0>         0.0635
     66 H24        -0.5378   -4.1033    3.3167 H         1 <0>         0.0670
     67 H25        -2.0989   -3.5088    3.9313 H         1 <0>         0.0626
     68 H26        -4.8279   -3.8192    0.3511 H         1 <0>         0.4047
     69 H27        -6.7799   -5.3762   -0.6242 H         1 <0>         0.1315
     70 H28        -5.9692   -6.5848    2.0573 H         1 <0>         0.1316
     71 H29        -6.2263   -4.8474    1.7687 H         1 <0>         0.1229
     72 H30       -10.6702   -7.5679    2.1413 H         1 <0>         0.4663
     73 H31        -8.1696   -8.1908    1.8859 H         1 <0>         0.2126
     74 H32       -11.0222   -5.0424    1.9483 H         1 <0>         0.2687
     75 H33        -5.7300   -8.0912   -0.3917 H         1 <0>         0.4288
     76 H34        -7.1370   -9.6082   -1.7644 H         1 <0>         0.1719
     77 H35        -7.2556   -9.9704    0.7189 H         1 <0>         0.1272
     78 H36        -9.0201   -9.7533    0.6317 H         1 <0>         0.0970
     79 H37       -10.4232  -11.4088   -0.4615 H         1 <0>         0.1193
     80 H38       -10.6822  -13.7718   -1.1037 H         1 <0>         0.1359
     81 H39        -8.6985  -15.2158   -1.3112 H         1 <0>         0.1377
     82 H40        -6.4558  -14.2967   -0.8773 H         1 <0>         0.1380
     83 H41        -6.1960  -11.9315   -0.2432 H         1 <0>         0.1327
     84 H42        -9.4344  -10.2405   -2.1643 H         1 <0>         0.4356
     85 H43        -8.7493   -7.5172   -3.0207 H         1 <0>         0.1362
     86 H44        -8.1876   -9.0207   -3.7903 H         1 <0>         0.1354
     87 H45       -11.1166   -8.2290   -3.4693 H         1 <0>         0.0933
     88 H46        -9.2867   -8.1400   -5.9108 H         1 <0>         0.0703
     89 H47       -11.0332   -7.7965   -5.9095 H         1 <0>         0.0824
     90 H48        -9.9148   -6.7251   -5.0323 H         1 <0>         0.0668
     91 H49        -9.7392  -10.4435   -5.0554 H         1 <0>         0.0760
     92 H50       -10.6897  -10.6696   -3.5676 H         1 <0>         0.0492
     93 H51       -11.4857  -10.1000   -5.0542 H         1 <0>         0.0888
     94 H52        -2.7982   -1.5943    0.0457 H         1 <0>         0.3788
     95 H53        -0.8976   -4.5717   -2.6815 H         1 <0>         0.3760
     96 H54        -9.9543   -8.8488   -1.4519 H         1 <0>         0.4268
     97 H55        -8.7317   -4.1160    1.5839 H         1 <0>         0.4667
@<TRIPOS>BOND
     1    1    2 1
     2    1   45 1
     3    1   46 1
     4    1   47 1
     5    2    3 1
     6    2    4 1
     7    2   48 1
     8    3   49 1
     9    3   50 1
    10    3   51 1
    11    4    5 1
    12    4   52 1
    13    4   53 1
    14    5    6 1
    15    5    7 1
    16    5   44 1
    17    7    8 1
    18    7    9 1
    19    7   43 1
    20    9   10 1
    21    9   17 1
    22    9   54 1
    23   10   11 1
    24   10   55 1
    25   10   56 1
    26   11   16 1
    27   11   12 1
    28   11   57 1
    29   12   13 1
    30   12   58 1
    31   12   59 1
    32   13   14 1
    33   13   60 1
    34   13   61 1
    35   14   15 1
    36   14   62 1
    37   14   63 1
    38   15   16 1
    39   15   64 1
    40   15   65 1
    41   16   66 1
    42   16   67 1
    43   17   18 am
    44   17   68 1
    45   18   19 2
    46   18   20 1
    47   20   21 1
    48   20   27 1
    49   20   69 1
    50   21   70 1
    51   21   71 1
    52   21   22 1
    53   22   23 2
    54   22   26 1
    55   23   24 1
    56   23   73 1
    57   24   25 1
    58   24   72 1
    59   25   74 1
    60   25   26 2
    61   26   97 1
    62   27   28 am
    63   27   75 1
    64   28   29 2
    65   28   30 1
    66   30   31 1
    67   30   38 1
    68   30   76 1
    69   31   32 1
    70   31   77 1
    71   31   78 1
    72   32   37 ar
    73   32   33 ar
    74   33   34 ar
    75   33   79 1
    76   34   35 ar
    77   34   80 1
    78   35   36 ar
    79   35   81 1
    80   36   37 ar
    81   36   82 1
    82   37   83 1
    83   38   39 1
    84   38   84 1
    85   38   96 1
    86   39   40 1
    87   39   85 1
    88   39   86 1
    89   40   41 1
    90   40   42 1
    91   40   87 1
    92   41   88 1
    93   41   89 1
    94   41   90 1
    95   42   91 1
    96   42   92 1
    97   42   93 1
    98   43   94 1
    99   44   95 1
@<TRIPOS>MOLECULE
CHEMBL73278__24
   96    98     0     0     0
SMALL
USER_CHARGES

@<TRIPOS>ATOM
      1 C1          3.1052   -2.8198   -4.4172 C.3       1 <0>        -0.1499
      2 C2          2.4880   -3.2963   -3.1008 C.3       1 <0>        -0.0942
      3 C3          2.5683   -2.1739   -2.0641 C.3       1 <0>        -0.1507
      4 C4          1.0233   -3.6737   -3.3314 C.3       1 <0>        -0.1431
      5 C5          0.4411   -4.2668   -2.0468 C.3       1 <0>         0.0754
      6 H1          0.5850   -3.5653   -1.2250 H         1 <0>         0.1076
      7 C6         -1.0541   -4.5287   -2.2379 C.3       1 <0>         0.0681
      8 H2         -1.1980   -5.2302   -3.0597 H         1 <0>         0.1031
      9 C7         -1.6363   -5.1218   -0.9533 C.3       1 <0>         0.1128
     10 C8         -1.5469   -4.0886    0.1716 C.3       1 <0>        -0.1359
     11 C9         -2.0449   -4.7118    1.4772 C.3       1 <0>        -0.0770
     12 C10        -3.5628   -4.8921    1.4098 C.3       1 <0>        -0.1278
     13 C11        -4.0608   -5.5153    2.7154 C.3       1 <0>        -0.1167
     14 C12        -3.7079   -4.5960    3.8865 C.3       1 <0>        -0.1202
     15 C13        -2.1900   -4.4157    3.9538 C.3       1 <0>        -0.1202
     16 C14        -1.6920   -3.7926    2.6483 C.3       1 <0>        -0.1162
     17 N1         -3.0387   -5.4832   -1.1741 N.am      1 <0>        -0.7064
     18 C15        -3.4612   -6.7359   -0.9117 C.2       1 <0>         0.5170
     19 O1         -2.6639   -7.5880   -0.5813 O.2       1 <0>        -0.5237
     20 C16        -4.9242   -7.0777   -1.0289 C.3       1 <0>         0.1286
     21 C17        -5.3946   -6.8216   -2.4621 C.3       1 <0>        -0.0548
     22 C18        -6.8887   -7.0025   -2.5403 C.2       1 <0>        -0.0187
     23 C19        -7.8257   -6.0929   -2.2115 C.2       1 <0>         0.0071
     24 N2         -9.0305   -6.6427   -2.4246 N.2       1 <0>        -0.4771
     25 C20        -8.8755   -7.8584   -2.8729 C.2       1 <0>         0.1849
     26 N3         -7.5540   -8.1209   -2.9647 N.pl3     1 <0>        -0.5703
     27 N4         -5.1240   -8.4900   -0.6944 N.am      1 <0>        -0.6831
     28 C21        -6.3105   -8.9063   -0.2093 C.2       1 <0>         0.5006
     29 O2         -7.2437   -8.1343   -0.1447 O.2       1 <0>        -0.4978
     30 C22        -6.4777  -10.3309    0.2527 C.3       1 <0>         0.0054
     31 C23        -6.4607  -11.2653   -0.9587 C.3       1 <0>        -0.0909
     32 C24        -5.0834  -11.2697   -1.5704 C.ar      1 <0>        -0.1229
     33 C25        -4.8085  -10.4648   -2.6601 C.ar      1 <0>        -0.1087
     34 C26        -3.5451  -10.4689   -3.2211 C.ar      1 <0>        -0.1085
     35 C27        -2.5565  -11.2774   -2.6922 C.ar      1 <0>        -0.0899
     36 C28        -2.8312  -12.0816   -1.6019 C.ar      1 <0>        -0.1052
     37 C29        -4.0934  -12.0744   -1.0382 C.ar      1 <0>        -0.1040
     38 N5         -7.7579  -10.4693    0.9599 N.4       1 <0>        -0.4937
     39 C30        -7.8390  -11.8036    1.5689 C.3       1 <0>        -0.0128
     40 C31        -9.1946  -11.9676    2.2592 C.3       1 <0>        -0.1165
     41 C32       -10.3083  -11.9328    1.2107 C.3       1 <0>        -0.1720
     42 C33        -9.2318  -13.3065    2.9985 C.3       1 <0>        -0.1518
     43 O3         -1.7183   -3.2998   -2.5389 O.3       1 <0>        -0.5498
     44 O4          1.1054   -5.4957   -1.7458 O.3       1 <0>        -0.5494
     45 H3          4.1487   -2.5509   -4.2529 H         1 <0>         0.0567
     46 H4          3.0480   -3.6194   -5.1557 H         1 <0>         0.0531
     47 H5          2.5587   -1.9496   -4.7808 H         1 <0>         0.0546
     48 H6          3.0345   -4.1664   -2.7372 H         1 <0>         0.0759
     49 H7          2.0217   -1.3037   -2.4277 H         1 <0>         0.0545
     50 H8          2.1285   -2.5133   -1.1263 H         1 <0>         0.0533
     51 H9          3.6117   -1.9050   -1.8999 H         1 <0>         0.0567
     52 H10         0.4583   -2.7840   -3.6095 H         1 <0>         0.0812
     53 H11         0.9596   -4.4098   -4.1328 H         1 <0>         0.0647
     54 H12        -1.0712   -6.0115   -0.6752 H         1 <0>         0.1209
     55 H13        -0.5110   -3.7716    0.2923 H         1 <0>         0.0833
     56 H14        -2.1643   -3.2256   -0.0778 H         1 <0>         0.0710
     57 H15        -1.5698   -5.6822    1.6210 H         1 <0>         0.0705
     58 H16        -4.0379   -3.9217    1.2660 H         1 <0>         0.0615
     59 H17        -3.8142   -5.5470    0.5755 H         1 <0>         0.0675
     60 H18        -5.1421   -5.6437    2.6674 H         1 <0>         0.0541
     61 H19        -3.5857   -6.4857    2.8592 H         1 <0>         0.0550
     62 H20        -4.1830   -3.6256    3.7426 H         1 <0>         0.0625
     63 H21        -4.0627   -5.0400    4.8166 H         1 <0>         0.0591
     64 H22        -1.9386   -3.7609    4.7881 H         1 <0>         0.0637
     65 H23        -1.7149   -5.3861    4.0977 H         1 <0>         0.0598
     66 H24        -0.6107   -3.6641    2.6963 H         1 <0>         0.0634
     67 H25        -2.1671   -2.8222    2.5044 H         1 <0>         0.0629
     68 H26        -3.6633   -4.8209   -1.5091 H         1 <0>         0.4078
     69 H27        -5.4986   -6.4567   -0.3415 H         1 <0>         0.1289
     70 H28        -5.1362   -5.8034   -2.7528 H         1 <0>         0.1081
     71 H29        -4.9075   -7.5265   -3.1358 H         1 <0>         0.0826
     72 H30        -7.6398   -5.0956   -1.8412 H         1 <0>         0.1645
     73 H31        -9.6722   -8.5404   -3.1310 H         1 <0>         0.2026
     74 H32        -4.4023   -9.1254   -0.8219 H         1 <0>         0.4200
     75 H33        -5.6609  -10.5930    0.9252 H         1 <0>         0.1648
     76 H34        -6.7209  -12.2753   -0.6422 H         1 <0>         0.1128
     77 H35        -7.1845  -10.9177   -1.6959 H         1 <0>         0.0972
     78 H36        -5.5808   -9.8331   -3.0734 H         1 <0>         0.1097
     79 H37        -3.3305   -9.8406   -4.0730 H         1 <0>         0.1293
     80 H38        -1.5697  -11.2811   -3.1309 H         1 <0>         0.1326
     81 H39        -2.0589  -12.7136   -1.1888 H         1 <0>         0.1335
     82 H40        -4.3069  -12.6999   -0.1840 H         1 <0>         0.1278
     83 H41        -7.8217   -9.7661    1.6807 H         1 <0>         0.4354
     84 H42        -7.7312  -12.5635    0.7950 H         1 <0>         0.1355
     85 H43        -7.0414  -11.9170    2.3031 H         1 <0>         0.1367
     86 H44        -9.3404  -11.1552    2.9712 H         1 <0>         0.0962
     87 H45       -11.2741  -12.0496    1.7024 H         1 <0>         0.0856
     88 H46       -10.2818  -10.9789    0.6840 H         1 <0>         0.0529
     89 H47       -10.1625  -12.7452    0.4987 H         1 <0>         0.0728
     90 H48        -8.4384  -13.3313    3.7455 H         1 <0>         0.0684
     91 H49       -10.1976  -13.4233    3.4903 H         1 <0>         0.0796
     92 H50        -9.0860  -14.1189    2.2866 H         1 <0>         0.0684
     93 H51        -1.6323   -2.6271   -1.8495 H         1 <0>         0.3779
     94 H52         1.0193   -6.1684   -2.4352 H         1 <0>         0.3752
     95 H53        -8.5176  -10.3511    0.3064 H         1 <0>         0.4311
     96 H54        -7.1515   -8.9480   -3.2725 H         1 <0>         0.4056
@<TRIPOS>BOND
     1    1    2 1
     2    1   45 1
     3    1   46 1
     4    1   47 1
     5    2    3 1
     6    2    4 1
     7    2   48 1
     8    3   49 1
     9    3   50 1
    10    3   51 1
    11    4    5 1
    12    4   52 1
    13    4   53 1
    14    5    6 1
    15    5    7 1
    16    5   44 1
    17    7    8 1
    18    7    9 1
    19    7   43 1
    20    9   10 1
    21    9   17 1
    22    9   54 1
    23   10   11 1
    24   10   55 1
    25   10   56 1
    26   11   16 1
    27   11   12 1
    28   11   57 1
    29   12   13 1
    30   12   58 1
    31   12   59 1
    32   13   14 1
    33   13   60 1
    34   13   61 1
    35   14   15 1
    36   14   62 1
    37   14   63 1
    38   15   16 1
    39   15   64 1
    40   15   65 1
    41   16   66 1
    42   16   67 1
    43   17   18 am
    44   17   68 1
    45   18   19 2
    46   18   20 1
    47   20   21 1
    48   20   27 1
    49   20   69 1
    50   21   70 1
    51   21   71 1
    52   21   22 1
    53   22   23 2
    54   22   26 1
    55   23   24 1
    56   23   72 1
    57   24   25 2
    58   25   73 1
    59   25   26 1
    60   26   96 1
    61   27   28 am
    62   27   74 1
    63   28   29 2
    64   28   30 1
    65   30   31 1
    66   30   38 1
    67   30   75 1
    68   31   32 1
    69   31   76 1
    70   31   77 1
    71   32   37 ar
    72   32   33 ar
    73   33   34 ar
    74   33   78 1
    75   34   35 ar
    76   34   79 1
    77   35   36 ar
    78   35   80 1
    79   36   37 ar
    80   36   81 1
    81   37   82 1
    82   38   39 1
    83   38   83 1
    84   38   95 1
    85   39   40 1
    86   39   84 1
    87   39   85 1
    88   40   41 1
    89   40   42 1
    90   40   86 1
    91   41   87 1
    92   41   88 1
    93   41   89 1
    94   42   90 1
    95   42   91 1
    96   42   92 1
    97   43   93 1
    98   44   94 1
@<TRIPOS>MOLECULE
CHEMBL73278__25
   96    98     0     0     0
SMALL
USER_CHARGES

@<TRIPOS>ATOM
      1 C1         -1.3516    3.9775    0.6094 C.3       1 <0>        -0.1499
      2 C2         -1.8388    2.6926    1.2821 C.3       1 <0>        -0.0947
      3 C3         -2.1130    1.6308    0.2153 C.3       1 <0>        -0.1513
      4 C4         -0.7651    2.1824    2.2453 C.3       1 <0>        -0.1422
      5 C5         -1.2845    0.9440    2.9784 C.3       1 <0>         0.0738
      6 H1         -1.6218    0.2058    2.2508 H         1 <0>         0.1086
      7 C6         -0.1615    0.3460    3.8283 C.3       1 <0>         0.0688
      8 H2          0.1758    1.0842    4.5560 H         1 <0>         0.1022
      9 C7         -0.6808   -0.8924    4.5614 C.3       1 <0>         0.1115
     10 C8         -1.0379   -1.9761    3.5421 C.3       1 <0>        -0.1340
     11 C9         -1.7035   -3.1520    4.2598 C.3       1 <0>        -0.0784
     12 C10        -0.6858   -3.8308    5.1787 C.3       1 <0>        -0.1234
     13 C11        -1.3514   -5.0066    5.8965 C.3       1 <0>        -0.1184
     14 C12        -1.8573   -6.0149    4.8628 C.3       1 <0>        -0.1198
     15 C13        -2.8750   -5.3361    3.9439 C.3       1 <0>        -0.1212
     16 C14        -2.2093   -4.1602    3.2261 C.3       1 <0>        -0.1152
     17 N1          0.3562   -1.3953    5.4658 N.am      1 <0>        -0.7084
     18 C15         0.1119   -1.4839    6.7882 C.2       1 <0>         0.5149
     19 O1         -0.9946   -1.2359    7.2184 O.2       1 <0>        -0.5124
     20 C16         1.2136   -1.8913    7.7323 C.3       1 <0>         0.1239
     21 C17         2.3649   -0.8883    7.6356 C.3       1 <0>        -0.0705
     22 C18         3.5156   -1.3609    8.4864 C.2       1 <0>         0.0424
     23 C19         4.4729   -2.2303    8.1105 C.2       1 <0>         0.0534
     24 N2          5.3149   -2.3788    9.1795 N.pl3     1 <0>        -0.4994
     25 C20         4.8424   -1.5944   10.1721 C.cat     1 <0>         0.3085
     26 N3          3.7690   -0.9848    9.7487 N.pl3     1 <0>        -0.4736
     27 N4          0.6985   -1.9127    9.1036 N.am      1 <0>        -0.7107
     28 C21         1.2857   -2.6936   10.0320 C.2       1 <0>         0.4878
     29 O2          2.2405   -3.3786    9.7321 O.2       1 <0>        -0.5414
     30 C22         0.7559   -2.7156   11.4426 C.3       1 <0>         0.0725
     31 C23         1.2535   -1.4790   12.1936 C.3       1 <0>        -0.0581
     32 C24         0.6260   -1.4367   13.5631 C.ar      1 <0>        -0.0840
     33 C25        -0.5798   -0.7873   13.7511 C.ar      1 <0>        -0.1180
     34 C26        -1.1554   -0.7485   15.0073 C.ar      1 <0>        -0.1187
     35 C27        -0.5255   -1.3595   16.0754 C.ar      1 <0>        -0.1138
     36 C28         0.6798   -2.0097   15.8872 C.ar      1 <0>        -0.1205
     37 C29         1.2533   -2.0522   14.6301 C.ar      1 <0>        -0.0862
     38 N5          1.2303   -3.9268   12.1250 N.3       1 <0>        -0.6500
     39 C30         0.3823   -5.0812   11.7989 C.3       1 <0>         0.0622
     40 C31         0.8171   -6.2860   12.6357 C.3       1 <0>        -0.0912
     41 C32        -0.1427   -7.4516   12.3888 C.3       1 <0>        -0.1500
     42 C33         2.2350   -6.6995   12.2361 C.3       1 <0>        -0.1450
     43 O3          0.9302   -0.0234    2.9834 O.3       1 <0>        -0.5522
     44 O4         -2.3761    1.3134    3.8233 O.3       1 <0>        -0.5485
     45 H3         -0.3908    3.7940    0.1284 H         1 <0>         0.0541
     46 H4         -2.0781    4.2938   -0.1390 H         1 <0>         0.0574
     47 H5         -1.2386    4.7601    1.3597 H         1 <0>         0.0531
     48 H6         -2.7555    2.8971    1.8352 H         1 <0>         0.0762
     49 H7         -1.1963    1.4262   -0.3378 H         1 <0>         0.0542
     50 H8         -2.4602    0.7154    0.6945 H         1 <0>         0.0539
     51 H9         -2.8780    1.9942   -0.4709 H         1 <0>         0.0573
     52 H10         0.1326    1.9227    1.6842 H         1 <0>         0.0806
     53 H11        -0.5279    2.9610    2.9704 H         1 <0>         0.0644
     54 H12        -1.5681   -0.6285    5.1369 H         1 <0>         0.1224
     55 H13        -1.7249   -1.5664    2.8017 H         1 <0>         0.0833
     56 H14        -0.1309   -2.3202    3.0449 H         1 <0>         0.0699
     57 H15        -2.5424   -2.7878    4.8529 H         1 <0>         0.0726
     58 H16         0.1531   -4.1949    4.5856 H         1 <0>         0.0561
     59 H17        -0.3254   -3.1125    5.9151 H         1 <0>         0.0682
     60 H18        -0.6264   -5.4902    6.5511 H         1 <0>         0.0530
     61 H19        -2.1903   -4.6425    6.4896 H         1 <0>         0.0592
     62 H20        -1.0184   -6.3790    4.2697 H         1 <0>         0.0600
     63 H21        -2.3315   -6.8526    5.3741 H         1 <0>         0.0605
     64 H22        -3.2354   -6.0543    3.2075 H         1 <0>         0.0637
     65 H23        -3.7138   -4.9719    4.5370 H         1 <0>         0.0617
     66 H24        -2.9344   -3.6766    2.5715 H         1 <0>         0.0633
     67 H25        -1.3705   -4.5244    2.6330 H         1 <0>         0.0613
     68 H26         1.2187   -1.6644    5.1128 H         1 <0>         0.4047
     69 H27         1.5734   -2.8845    7.4639 H         1 <0>         0.1252
     70 H28         2.6896   -0.8068    6.5983 H         1 <0>         0.1264
     71 H29         2.0283    0.0864    7.9887 H         1 <0>         0.1059
     72 H30         6.1036   -2.9422    9.2170 H         1 <0>         0.4662
     73 H31         4.5595   -2.7171    7.1503 H         1 <0>         0.2217
     74 H32         5.2824   -1.4862   11.1524 H         1 <0>         0.2620
     75 H33        -0.0652   -1.3648    9.3435 H         1 <0>         0.4185
     76 H34        -0.3339   -2.7137   11.4214 H         1 <0>         0.1095
     77 H35         2.3380   -1.5258   12.2922 H         1 <0>         0.0675
     78 H36         0.9774   -0.5818   11.6396 H         1 <0>         0.0753
     79 H37        -1.0719   -0.3099   12.9167 H         1 <0>         0.1176
     80 H38        -2.0971   -0.2405   15.1544 H         1 <0>         0.1225
     81 H39        -0.9749   -1.3286   17.0570 H         1 <0>         0.1223
     82 H40         1.1721   -2.4868   16.7218 H         1 <0>         0.1217
     83 H41         2.1931   -2.5633   14.4824 H         1 <0>         0.1192
     84 H42         2.1964   -4.1131   11.9012 H         1 <0>         0.3493
     85 H43        -0.6579   -4.8418   12.0198 H         1 <0>         0.0739
     86 H44         0.4836   -5.3188   10.7399 H         1 <0>         0.0322
     87 H45         0.8007   -6.0194   13.6925 H         1 <0>         0.0812
     88 H46        -0.1263   -7.7182   11.3320 H         1 <0>         0.0528
     89 H47         0.1670   -8.3099   12.9849 H         1 <0>         0.0610
     90 H48        -1.1528   -7.1570   12.6735 H         1 <0>         0.0570
     91 H49         2.2514   -6.9662   11.1793 H         1 <0>         0.0499
     92 H50         2.9188   -5.8692   12.4120 H         1 <0>         0.0509
     93 H51         2.5447   -7.5579   12.8322 H         1 <0>         0.0580
     94 H52         0.7021   -0.6788    2.3101 H         1 <0>         0.3787
     95 H53        -2.1480    1.9688    4.4967 H         1 <0>         0.3755
     96 H54         3.2372   -0.3598   10.2659 H         1 <0>         0.4574
@<TRIPOS>BOND
     1    1    2 1
     2    1   45 1
     3    1   46 1
     4    1   47 1
     5    2    3 1
     6    2    4 1
     7    2   48 1
     8    3   49 1
     9    3   50 1
    10    3   51 1
    11    4    5 1
    12    4   52 1
    13    4   53 1
    14    5    6 1
    15    5    7 1
    16    5   44 1
    17    7    8 1
    18    7    9 1
    19    7   43 1
    20    9   10 1
    21    9   17 1
    22    9   54 1
    23   10   11 1
    24   10   55 1
    25   10   56 1
    26   11   16 1
    27   11   12 1
    28   11   57 1
    29   12   13 1
    30   12   58 1
    31   12   59 1
    32   13   14 1
    33   13   60 1
    34   13   61 1
    35   14   15 1
    36   14   62 1
    37   14   63 1
    38   15   16 1
    39   15   64 1
    40   15   65 1
    41   16   66 1
    42   16   67 1
    43   17   18 am
    44   17   68 1
    45   18   19 2
    46   18   20 1
    47   20   21 1
    48   20   27 1
    49   20   69 1
    50   21   70 1
    51   21   71 1
    52   21   22 1
    53   22   23 2
    54   22   26 1
    55   23   24 1
    56   23   73 1
    57   24   25 1
    58   24   72 1
    59   25   74 1
    60   25   26 2
    61   26   96 1
    62   27   28 am
    63   27   75 1
    64   28   29 2
    65   28   30 1
    66   30   31 1
    67   30   38 1
    68   30   76 1
    69   31   32 1
    70   31   77 1
    71   31   78 1
    72   32   37 ar
    73   32   33 ar
    74   33   34 ar
    75   33   79 1
    76   34   35 ar
    77   34   80 1
    78   35   36 ar
    79   35   81 1
    80   36   37 ar
    81   36   82 1
    82   37   83 1
    83   38   39 1
    84   38   84 1
    85   39   40 1
    86   39   85 1
    87   39   86 1
    88   40   41 1
    89   40   42 1
    90   40   87 1
    91   41   88 1
    92   41   89 1
    93   41   90 1
    94   42   91 1
    95   42   92 1
    96   42   93 1
    97   43   94 1
    98   44   95 1
@<TRIPOS>MOLECULE
CHEMBL73278__26
   96    98     0     0     0
SMALL
USER_CHARGES

@<TRIPOS>ATOM
      1 C1         -1.9768    5.2113   -8.2632 C.3       1 <0>        -0.1498
      2 C2         -2.8214    3.9393   -8.3608 C.3       1 <0>        -0.0946
      3 C3         -1.9110    2.7136   -8.2608 C.3       1 <0>        -0.1507
      4 C4         -3.8385    3.9136   -7.2181 C.3       1 <0>        -0.1428
      5 C5         -4.7739    2.7158   -7.3948 C.3       1 <0>         0.0752
      6 H1         -4.1834    1.8043   -7.4881 H         1 <0>         0.1072
      7 C6         -5.6951    2.6043   -6.1783 C.3       1 <0>         0.0681
      8 H2         -6.2856    3.5158   -6.0850 H         1 <0>         0.1030
      9 C7         -6.6305    1.4065   -6.3550 C.3       1 <0>         0.1134
     10 C8         -5.8100    0.1152   -6.3610 C.3       1 <0>        -0.1345
     11 C9         -6.7283   -1.0712   -6.6615 C.3       1 <0>        -0.0763
     12 C10        -7.6701   -1.2997   -5.4775 C.3       1 <0>        -0.1261
     13 C11        -8.5884   -2.4861   -5.7780 C.3       1 <0>        -0.1164
     14 C12        -7.7427   -3.7405   -6.0065 C.3       1 <0>        -0.1201
     15 C13        -6.8009   -3.5119   -7.1904 C.3       1 <0>        -0.1202
     16 C14        -5.8826   -2.3256   -6.8900 C.3       1 <0>        -0.1160
     17 N1         -7.5910    1.3697   -5.2494 N.am      1 <0>        -0.7089
     18 C15        -8.9141    1.3825   -5.5054 C.2       1 <0>         0.5156
     19 O1         -9.3109    1.3254   -6.6501 O.2       1 <0>        -0.5245
     20 C16        -9.9006    1.4679   -4.3694 C.3       1 <0>         0.1405
     21 C17        -9.6636    2.7594   -3.5840 C.3       1 <0>        -0.0443
     22 C18       -10.5663    2.7866   -2.3776 C.2       1 <0>         0.0025
     23 C19       -10.1743    2.9479   -1.0994 C.2       1 <0>        -0.0347
     24 N2        -11.3061    2.9114   -0.3304 N.pl3     1 <0>        -0.5633
     25 C20       -12.3511    2.7289   -1.1661 C.2       1 <0>         0.1800
     26 N3        -11.9015    2.6602   -2.3893 N.2       1 <0>        -0.4705
     27 N4        -11.2641    1.4656   -4.9054 N.am      1 <0>        -0.6818
     28 C21       -12.2878    1.0363   -4.1412 C.2       1 <0>         0.5370
     29 O2        -12.0804    0.6519   -3.0097 O.2       1 <0>        -0.5060
     30 C22       -13.6904    1.0339   -4.6925 C.3       1 <0>         0.0116
     31 C23       -14.2725    2.4465   -4.6118 C.3       1 <0>        -0.0812
     32 C24       -13.4937    3.3634   -5.5194 C.ar      1 <0>        -0.1156
     33 C25       -12.4918    4.1620   -5.0005 C.ar      1 <0>        -0.0881
     34 C26       -11.7774    5.0031   -5.8330 C.ar      1 <0>        -0.1232
     35 C27       -12.0646    5.0453   -7.1845 C.ar      1 <0>        -0.0976
     36 C28       -13.0659    4.2460   -7.7036 C.ar      1 <0>        -0.1179
     37 C29       -13.7774    3.4018   -6.8718 C.ar      1 <0>        -0.1111
     38 N5        -14.5241    0.1150   -3.9061 N.4       1 <0>        -0.4926
     39 C30       -15.8382   -0.0246   -4.5477 C.3       1 <0>        -0.0124
     40 C31       -16.7325   -0.9209   -3.6888 C.3       1 <0>        -0.1155
     41 C32       -18.1383   -0.9658   -4.2909 C.3       1 <0>        -0.1520
     42 C33       -16.1494   -2.3349   -3.6488 C.3       1 <0>        -0.1720
     43 O3         -4.9078    2.4240   -4.9995 O.3       1 <0>        -0.5505
     44 O4         -5.5613    2.8961   -8.5736 O.3       1 <0>        -0.5494
     45 H3         -1.1964    5.1885   -9.0240 H         1 <0>         0.0567
     46 H4         -2.6125    6.0825   -8.4209 H         1 <0>         0.0531
     47 H5         -1.5196    5.2690   -7.2754 H         1 <0>         0.0542
     48 H6         -3.3471    3.9245   -9.3155 H         1 <0>         0.0762
     49 H7         -1.3853    2.7284   -7.3061 H         1 <0>         0.0543
     50 H8         -2.5127    1.8074   -8.3303 H         1 <0>         0.0533
     51 H9         -1.1864    2.7319   -9.0749 H         1 <0>         0.0566
     52 H10        -3.3139    3.8276   -6.2666 H         1 <0>         0.0809
     53 H11        -4.4214    4.8346   -7.2298 H         1 <0>         0.0648
     54 H12        -7.1669    1.5006   -7.2992 H         1 <0>         0.1204
     55 H13        -5.0370    0.1794   -7.1269 H         1 <0>         0.0815
     56 H14        -5.3442   -0.0239   -5.3854 H         1 <0>         0.0692
     57 H15        -7.3140   -0.8599   -7.5561 H         1 <0>         0.0721
     58 H16        -7.0844   -1.5111   -4.5829 H         1 <0>         0.0569
     59 H17        -8.2725   -0.4061   -5.3147 H         1 <0>         0.0715
     60 H18        -9.2593   -2.6489   -4.9345 H         1 <0>         0.0522
     61 H19        -9.1740   -2.2748   -6.6726 H         1 <0>         0.0577
     62 H20        -7.1570   -3.9518   -5.1118 H         1 <0>         0.0606
     63 H21        -8.3969   -4.5857   -6.2205 H         1 <0>         0.0588
     64 H22        -6.1985   -4.4056   -7.3532 H         1 <0>         0.0628
     65 H23        -7.3866   -3.3006   -8.0851 H         1 <0>         0.0607
     66 H24        -5.2117   -2.1628   -7.7334 H         1 <0>         0.0628
     67 H25        -5.2969   -2.5369   -5.9953 H         1 <0>         0.0614
     68 H26        -7.2746    1.3360   -4.3330 H         1 <0>         0.4061
     69 H27        -9.7686    0.6113   -3.7084 H         1 <0>         0.1168
     70 H28        -8.6235    2.8023   -3.2607 H         1 <0>         0.0923
     71 H29        -9.8818    3.6169   -4.2205 H         1 <0>         0.0865
     72 H30       -11.3494    3.0001    0.6345 H         1 <0>         0.4231
     73 H31        -9.1615    3.0803   -0.7484 H         1 <0>         0.1736
     74 H32       -13.3875    2.6561   -0.8714 H         1 <0>         0.1968
     75 H33       -11.4300    1.7730   -5.8103 H         1 <0>         0.4141
     76 H34       -13.6714    0.7076   -5.7324 H         1 <0>         0.1525
     77 H35       -15.3167    2.4276   -4.9237 H         1 <0>         0.0980
     78 H36       -14.2063    2.8087   -3.5858 H         1 <0>         0.1093
     79 H37       -12.2674    4.1291   -3.9446 H         1 <0>         0.1432
     80 H38       -10.9951    5.6276   -5.4275 H         1 <0>         0.1217
     81 H39       -11.5069    5.7029   -7.8349 H         1 <0>         0.1250
     82 H40       -13.2906    4.2792   -8.7595 H         1 <0>         0.1266
     83 H41       -14.5572    2.7746   -7.2779 H         1 <0>         0.1210
     84 H42       -14.0760   -0.7877   -3.8575 H         1 <0>         0.4290
     85 H43       -16.2991    0.9580   -4.6494 H         1 <0>         0.1366
     86 H44       -15.7153   -0.4721   -5.5340 H         1 <0>         0.1341
     87 H45       -16.7835   -0.5201   -2.6764 H         1 <0>         0.0946
     88 H46       -18.0873   -1.3666   -5.3032 H         1 <0>         0.0684
     89 H47       -18.7754   -1.6044   -3.6790 H         1 <0>         0.0779
     90 H48       -18.5537    0.0415   -4.3194 H         1 <0>         0.0682
     91 H49       -15.1478   -2.3028   -3.2198 H         1 <0>         0.0524
     92 H50       -16.7865   -2.9734   -3.0368 H         1 <0>         0.0833
     93 H51       -16.0984   -2.7356   -4.6611 H         1 <0>         0.0728
     94 H52        -4.3556    1.6303   -5.0129 H         1 <0>         0.3772
     95 H53        -6.1135    3.6898   -8.5602 H         1 <0>         0.3753
     96 H54       -14.6423    0.4824   -2.9738 H         1 <0>         0.4320
@<TRIPOS>BOND
     1    1    2 1
     2    1   45 1
     3    1   46 1
     4    1   47 1
     5    2    3 1
     6    2    4 1
     7    2   48 1
     8    3   49 1
     9    3   50 1
    10    3   51 1
    11    4    5 1
    12    4   52 1
    13    4   53 1
    14    5    6 1
    15    5    7 1
    16    5   44 1
    17    7    8 1
    18    7    9 1
    19    7   43 1
    20    9   10 1
    21    9   17 1
    22    9   54 1
    23   10   11 1
    24   10   55 1
    25   10   56 1
    26   11   16 1
    27   11   12 1
    28   11   57 1
    29   12   13 1
    30   12   58 1
    31   12   59 1
    32   13   14 1
    33   13   60 1
    34   13   61 1
    35   14   15 1
    36   14   62 1
    37   14   63 1
    38   15   16 1
    39   15   64 1
    40   15   65 1
    41   16   66 1
    42   16   67 1
    43   17   18 am
    44   17   68 1
    45   18   19 2
    46   18   20 1
    47   20   21 1
    48   20   27 1
    49   20   69 1
    50   21   70 1
    51   21   71 1
    52   21   22 1
    53   22   23 2
    54   22   26 1
    55   23   24 1
    56   23   73 1
    57   24   25 1
    58   24   72 1
    59   25   74 1
    60   25   26 2
    61   27   28 am
    62   27   75 1
    63   28   29 2
    64   28   30 1
    65   30   31 1
    66   30   38 1
    67   30   76 1
    68   31   32 1
    69   31   77 1
    70   31   78 1
    71   32   37 ar
    72   32   33 ar
    73   33   34 ar
    74   33   79 1
    75   34   35 ar
    76   34   80 1
    77   35   36 ar
    78   35   81 1
    79   36   37 ar
    80   36   82 1
    81   37   83 1
    82   38   39 1
    83   38   84 1
    84   38   96 1
    85   39   40 1
    86   39   85 1
    87   39   86 1
    88   40   41 1
    89   40   42 1
    90   40   87 1
    91   41   88 1
    92   41   89 1
    93   41   90 1
    94   42   91 1
    95   42   92 1
    96   42   93 1
    97   43   94 1
    98   44   95 1
@<TRIPOS>MOLECULE
CHEMBL73278__27
   97    99     0     0     0
SMALL
USER_CHARGES

@<TRIPOS>ATOM
      1 C1          2.6592   -3.1434   -4.7672 C.3       1 <0>        -0.1508
      2 C2          2.1075   -3.6582   -3.4363 C.3       1 <0>        -0.0945
      3 C3          2.2518   -2.5708   -2.3696 C.3       1 <0>        -0.1513
      4 C4          0.6295   -4.0175   -3.6016 C.3       1 <0>        -0.1423
      5 C5          0.1102   -4.6480   -2.3079 C.3       1 <0>         0.0744
      6 H1          0.3030   -3.9748   -1.4726 H         1 <0>         0.1088
      7 C6         -1.3953   -4.8930   -2.4285 C.3       1 <0>         0.0690
      8 H2         -1.5881   -5.5662   -3.2638 H         1 <0>         0.1033
      9 C7         -1.9146   -5.5235   -1.1349 C.3       1 <0>         0.1118
     10 C8         -1.7574   -4.5283    0.0165 C.3       1 <0>        -0.1372
     11 C9         -2.1937   -5.1897    1.3254 C.3       1 <0>        -0.0781
     12 C10        -3.7153   -5.3494    1.3337 C.3       1 <0>        -0.1244
     13 C11        -4.1515   -6.0107    2.6426 C.3       1 <0>        -0.1161
     14 C12        -3.7241   -5.1363    3.8231 C.3       1 <0>        -0.1211
     15 C13        -2.2025   -4.9765    3.8148 C.3       1 <0>        -0.1220
     16 C14        -1.7662   -4.3152    2.5059 C.3       1 <0>        -0.1176
     17 N1         -3.3298   -5.8676   -1.2931 N.am      1 <0>        -0.7024
     18 C15        -3.7499   -7.1238   -1.0441 C.2       1 <0>         0.5136
     19 O1         -2.9447   -7.9911   -0.7791 O.2       1 <0>        -0.5099
     20 C16        -5.2201   -7.4506   -1.0951 C.3       1 <0>         0.1216
     21 C17        -5.7611   -7.1506   -2.4944 C.3       1 <0>        -0.0767
     22 C18        -7.2591   -7.3153   -2.4999 C.2       1 <0>         0.0361
     23 C19        -8.1576   -6.3977   -2.0945 C.2       1 <0>         0.0633
     24 N2         -9.3966   -6.9529   -2.2684 N.pl3     1 <0>        -0.4951
     25 C20        -9.2120   -8.1913   -2.7743 C.cat     1 <0>         0.3005
     26 N3         -7.9313   -8.3992   -2.9148 N.pl3     1 <0>        -0.4802
     27 N4         -5.4157   -8.8701   -0.7900 N.am      1 <0>        -0.6790
     28 C21        -6.5819   -9.2915   -0.2620 C.2       1 <0>         0.5098
     29 O2         -7.5046   -8.5151   -0.1325 O.2       1 <0>        -0.5363
     30 C22        -6.7395  -10.7274    0.1674 C.3       1 <0>         0.0019
     31 C23        -6.7753  -11.6284   -1.0687 C.3       1 <0>        -0.0897
     32 C24        -5.4239  -11.6201   -1.7356 C.ar      1 <0>        -0.1310
     33 C25        -5.1907  -10.7883   -2.8147 C.ar      1 <0>        -0.1189
     34 C26        -3.9511  -10.7807   -3.4264 C.ar      1 <0>        -0.1068
     35 C27        -2.9445  -11.6047   -2.9587 C.ar      1 <0>        -0.0838
     36 C28        -3.1774  -12.4358   -1.8790 C.ar      1 <0>        -0.0968
     37 C29        -4.4157  -12.4403   -1.2646 C.ar      1 <0>        -0.0997
     38 N5         -7.9920  -10.8788    0.9200 N.4       1 <0>        -0.4932
     39 C30        -8.0575  -12.2289    1.4951 C.3       1 <0>        -0.0157
     40 C31        -9.4009  -12.4172    2.2028 C.3       1 <0>        -0.1132
     41 C32        -9.5209  -13.8614    2.6935 C.3       1 <0>        -0.1551
     42 C33        -9.4864  -11.4641    3.3966 C.3       1 <0>        -0.1737
     43 O3         -2.0635   -3.6502   -2.6543 O.3       1 <0>        -0.5518
     44 O4          0.7784   -5.8908   -2.0821 O.3       1 <0>        -0.5482
     45 H3          3.7121   -2.8874   -4.6495 H         1 <0>         0.0587
     46 H4          2.5564   -3.9180   -5.5271 H         1 <0>         0.0533
     47 H5          2.1021   -2.2579   -5.0733 H         1 <0>         0.0548
     48 H6          2.6647   -4.5436   -3.1302 H         1 <0>         0.0766
     49 H7          1.8588   -2.9376   -1.4214 H         1 <0>         0.0523
     50 H8          3.3048   -2.3149   -2.2518 H         1 <0>         0.0588
     51 H9          1.6947   -1.6854   -2.6757 H         1 <0>         0.0547
     52 H10         0.0586   -3.1152   -3.8207 H         1 <0>         0.0811
     53 H11         0.5175   -4.7265   -4.4219 H         1 <0>         0.0646
     54 H12        -1.3437   -6.4258   -0.9157 H         1 <0>         0.1236
     55 H13        -0.7137   -4.2238    0.0936 H         1 <0>         0.0876
     56 H14        -2.3784   -3.6527   -0.1727 H         1 <0>         0.0718
     57 H15        -1.7249   -6.1700    1.4110 H         1 <0>         0.0718
     58 H16        -4.1840   -4.3691    1.2482 H         1 <0>         0.0615
     59 H17        -4.0198   -5.9724    0.4928 H         1 <0>         0.0606
     60 H18        -5.2355   -6.1245    2.6486 H         1 <0>         0.0504
     61 H19        -3.6828   -6.9911    2.7282 H         1 <0>         0.0557
     62 H20        -4.1928   -4.1559    3.7375 H         1 <0>         0.0629
     63 H21        -4.0349   -5.6074    4.7556 H         1 <0>         0.0609
     64 H22        -1.8979   -4.3535    4.6558 H         1 <0>         0.0669
     65 H23        -1.7337   -5.9569    3.9004 H         1 <0>         0.0610
     66 H24        -0.6822   -4.2014    2.5000 H         1 <0>         0.0664
     67 H25        -2.2349   -3.3348    2.4203 H         1 <0>         0.0637
     68 H26        -3.9645   -5.1913   -1.5772 H         1 <0>         0.4057
     69 H27        -5.7527   -6.8447   -0.3620 H         1 <0>         0.1362
     70 H28        -5.5071   -6.1271   -2.7704 H         1 <0>         0.1350
     71 H29        -5.3171   -7.8411   -3.2114 H         1 <0>         0.1103
     72 H30       -10.2482   -6.5349   -2.0660 H         1 <0>         0.4699
     73 H31        -7.9420   -5.4132   -1.7065 H         1 <0>         0.2264
     74 H32        -9.9947   -8.8920   -3.0251 H         1 <0>         0.2641
     75 H33        -4.7057   -9.5067   -0.9679 H         1 <0>         0.4296
     76 H34        -5.8988  -11.0118    0.8001 H         1 <0>         0.1728
     77 H35        -7.0266  -12.6459   -0.7695 H         1 <0>         0.1208
     78 H36        -7.5269  -11.2586   -1.7662 H         1 <0>         0.0916
     79 H37        -5.9771  -10.1445   -3.1801 H         1 <0>         0.0960
     80 H38        -3.7692  -10.1313   -4.2700 H         1 <0>         0.1320
     81 H39        -1.9762  -11.5993   -3.4370 H         1 <0>         0.1378
     82 H40        -2.3911  -13.0798   -1.5138 H         1 <0>         0.1389
     83 H41        -4.5965  -13.0870   -0.4187 H         1 <0>         0.1319
     84 H42        -8.0233  -10.1954    1.6617 H         1 <0>         0.4360
     85 H43        -7.9592  -12.9678    0.6998 H         1 <0>         0.1389
     86 H44        -7.2475  -12.3578    2.2130 H         1 <0>         0.1403
     87 H45       -10.2116  -12.2013    1.5068 H         1 <0>         0.0941
     88 H46        -8.7102  -14.0772    3.3894 H         1 <0>         0.0713
     89 H47       -10.4780  -13.9955    3.1976 H         1 <0>         0.0825
     90 H48        -9.4600  -14.5403    1.8429 H         1 <0>         0.0697
     91 H49        -8.6757  -11.6799    4.0926 H         1 <0>         0.0757
     92 H50        -9.4009  -10.4352    3.0471 H         1 <0>         0.0493
     93 H51       -10.4434  -11.5982    3.9008 H         1 <0>         0.0877
     94 H52        -1.9356   -3.0010   -1.9491 H         1 <0>         0.3801
     95 H53         0.6505   -6.5400   -2.7873 H         1 <0>         0.3751
     96 H54        -8.7758  -10.7387    0.3003 H         1 <0>         0.4268
     97 H55        -7.5290   -9.2104   -3.2626 H         1 <0>         0.4524
@<TRIPOS>BOND
     1    1    2 1
     2    1   45 1
     3    1   46 1
     4    1   47 1
     5    2    3 1
     6    2    4 1
     7    2   48 1
     8    3   49 1
     9    3   50 1
    10    3   51 1
    11    4    5 1
    12    4   52 1
    13    4   53 1
    14    5    6 1
    15    5    7 1
    16    5   44 1
    17    7    8 1
    18    7    9 1
    19    7   43 1
    20    9   10 1
    21    9   17 1
    22    9   54 1
    23   10   11 1
    24   10   55 1
    25   10   56 1
    26   11   16 1
    27   11   12 1
    28   11   57 1
    29   12   13 1
    30   12   58 1
    31   12   59 1
    32   13   14 1
    33   13   60 1
    34   13   61 1
    35   14   15 1
    36   14   62 1
    37   14   63 1
    38   15   16 1
    39   15   64 1
    40   15   65 1
    41   16   66 1
    42   16   67 1
    43   17   18 am
    44   17   68 1
    45   18   19 2
    46   18   20 1
    47   20   21 1
    48   20   27 1
    49   20   69 1
    50   21   70 1
    51   21   71 1
    52   21   22 1
    53   22   23 2
    54   22   26 1
    55   23   24 1
    56   23   73 1
    57   24   25 1
    58   24   72 1
    59   25   74 1
    60   25   26 2
    61   26   97 1
    62   27   28 am
    63   27   75 1
    64   28   29 2
    65   28   30 1
    66   30   31 1
    67   30   38 1
    68   30   76 1
    69   31   32 1
    70   31   77 1
    71   31   78 1
    72   32   37 ar
    73   32   33 ar
    74   33   34 ar
    75   33   79 1
    76   34   35 ar
    77   34   80 1
    78   35   36 ar
    79   35   81 1
    80   36   37 ar
    81   36   82 1
    82   37   83 1
    83   38   39 1
    84   38   84 1
    85   38   96 1
    86   39   40 1
    87   39   85 1
    88   39   86 1
    89   40   41 1
    90   40   42 1
    91   40   87 1
    92   41   88 1
    93   41   89 1
    94   41   90 1
    95   42   91 1
    96   42   92 1
    97   42   93 1
    98   43   94 1
    99   44   95 1
@<TRIPOS>MOLECULE
CHEMBL73278__28
   96    98     0     0     0
SMALL
USER_CHARGES

@<TRIPOS>ATOM
      1 C1          2.8893   -2.3413   -2.1197 C.3       1 <0>        -0.1499
      2 C2          2.1931   -3.2239   -1.0819 C.3       1 <0>        -0.0944
      3 C3          2.1019   -2.4726    0.2478 C.3       1 <0>        -0.1507
      4 C4          0.7849   -3.5705   -1.5695 C.3       1 <0>        -0.1432
      5 C5          0.1345   -4.5529   -0.5933 C.3       1 <0>         0.0755
      6 H1          0.1552   -4.1330    0.4124 H         1 <0>         0.1077
      7 C6         -1.3157   -4.8030   -1.0119 C.3       1 <0>         0.0680
      8 H2         -1.3364   -5.2228   -2.0176 H         1 <0>         0.1040
      9 C7         -1.9661   -5.7853   -0.0357 C.3       1 <0>         0.1127
     10 C8         -2.0498   -5.1456    1.3516 C.3       1 <0>        -0.1363
     11 C9         -2.6339   -6.1534    2.3436 C.3       1 <0>        -0.0776
     12 C10        -4.1447   -6.2637    2.1285 C.3       1 <0>        -0.1232
     13 C11        -4.7288   -7.2716    3.1204 C.3       1 <0>        -0.1161
     14 C12        -4.4501   -6.8010    4.5493 C.3       1 <0>        -0.1203
     15 C13        -2.9394   -6.6907    4.7644 C.3       1 <0>        -0.1201
     16 C14        -2.3552   -5.6828    3.7725 C.3       1 <0>        -0.1163
     17 N1         -3.3145   -6.1172   -0.5026 N.am      1 <0>        -0.7068
     18 C15        -3.6995   -7.4059   -0.5890 C.2       1 <0>         0.5160
     19 O1         -2.9032   -8.2930   -0.3659 O.2       1 <0>        -0.5257
     20 C16        -5.1196   -7.7445   -0.9628 C.3       1 <0>         0.1280
     21 C17        -5.4333   -7.1714   -2.3463 C.3       1 <0>        -0.0544
     22 C18        -6.8725   -7.4542   -2.6926 C.2       1 <0>        -0.0210
     23 C19        -7.9439   -6.7230   -2.3306 C.2       1 <0>         0.0094
     24 N2         -9.0376   -7.3095   -2.8393 N.2       1 <0>        -0.4712
     25 C20        -8.6847   -8.3763   -3.5029 C.2       1 <0>         0.1703
     26 N3         -7.3414   -8.5003   -3.4406 N.pl3     1 <0>        -0.5733
     27 N4         -5.2840   -9.2000   -0.9883 N.am      1 <0>        -0.6858
     28 C21        -6.4532   -9.7529   -0.6090 C.2       1 <0>         0.5055
     29 O2         -7.3965   -9.0440   -0.3287 O.2       1 <0>        -0.4950
     30 C22        -6.5884  -11.2519   -0.5332 C.3       1 <0>         0.0106
     31 C23        -5.9395  -11.7579    0.7567 C.3       1 <0>        -0.0917
     32 C24        -5.9654  -13.2645    0.7745 C.ar      1 <0>        -0.1282
     33 C25        -7.0452  -13.9308    1.3232 C.ar      1 <0>        -0.1402
     34 C26        -7.0689  -15.3129    1.3395 C.ar      1 <0>        -0.1051
     35 C27        -6.0131  -16.0286    0.8068 C.ar      1 <0>        -0.1006
     36 C28        -4.9337  -15.3624    0.2573 C.ar      1 <0>        -0.1043
     37 C29        -4.9120  -13.9803    0.2371 C.ar      1 <0>        -0.1022
     38 N5         -8.0114  -11.6162   -0.5411 N.4       1 <0>        -0.4935
     39 C30        -8.5937  -11.2879   -1.8492 C.3       1 <0>        -0.0253
     40 C31       -10.0652  -11.7064   -1.8720 C.3       1 <0>        -0.1121
     41 C32       -10.8621  -10.8216   -0.9112 C.3       1 <0>        -0.1684
     42 C33       -10.6187  -11.5476   -3.2895 C.3       1 <0>        -0.1523
     43 O3         -2.0357   -3.5687   -0.9961 O.3       1 <0>        -0.5500
     44 O4          0.8545   -5.7871   -0.6091 O.3       1 <0>        -0.5497
     45 H3          3.8925   -2.0944   -1.7723 H         1 <0>         0.0568
     46 H4          2.9543   -2.8765   -3.0670 H         1 <0>         0.0532
     47 H5          2.3171   -1.4241   -2.2592 H         1 <0>         0.0546
     48 H6          2.7653   -4.1411   -0.9425 H         1 <0>         0.0761
     49 H7          1.5296   -1.5554    0.1083 H         1 <0>         0.0545
     50 H8          1.6058   -3.1014    0.9871 H         1 <0>         0.0533
     51 H9          3.1051   -2.2257    0.5952 H         1 <0>         0.0568
     52 H10         0.1853   -2.6618   -1.6240 H         1 <0>         0.0813
     53 H11         0.8445   -4.0263   -2.5579 H         1 <0>         0.0650
     54 H12        -1.3665   -6.6940    0.0188 H         1 <0>         0.1203
     55 H13        -1.0518   -4.8520    1.6772 H         1 <0>         0.0830
     56 H14        -2.6912   -4.2654    1.3078 H         1 <0>         0.0707
     57 H15        -2.1723   -7.1281    2.1855 H         1 <0>         0.0718
     58 H16        -4.6063   -5.2890    2.2865 H         1 <0>         0.0616
     59 H17        -4.3432   -6.5990    1.1105 H         1 <0>         0.0633
     60 H18        -5.8051   -7.3502    2.9672 H         1 <0>         0.0551
     61 H19        -4.2672   -8.2463    2.9624 H         1 <0>         0.0548
     62 H20        -4.9118   -5.8263    4.7074 H         1 <0>         0.0625
     63 H21        -4.8663   -7.5190    5.2560 H         1 <0>         0.0592
     64 H22        -2.7408   -6.3554    5.7824 H         1 <0>         0.0635
     65 H23        -2.4777   -7.6654    4.6064 H         1 <0>         0.0597
     66 H24        -1.2789   -5.6042    3.9257 H         1 <0>         0.0634
     67 H25        -2.8168   -4.7081    3.9305 H         1 <0>         0.0627
     68 H26        -3.9301   -5.4094   -0.7495 H         1 <0>         0.4078
     69 H27        -5.8010   -7.3147   -0.2284 H         1 <0>         0.1340
     70 H28        -5.2660   -6.0943   -2.3399 H         1 <0>         0.1110
     71 H29        -4.7832   -7.6357   -3.0878 H         1 <0>         0.0857
     72 H30        -7.9256   -5.8222   -1.7350 H         1 <0>         0.1684
     73 H31        -9.3554   -9.0471   -4.0192 H         1 <0>         0.2029
     74 H32        -4.5515   -9.7658   -1.2783 H         1 <0>         0.4167
     75 H33        -6.0925  -11.7053   -1.3915 H         1 <0>         0.1594
     76 H34        -4.9071  -11.4116    0.8041 H         1 <0>         0.1278
     77 H35        -6.4910  -11.3748    1.6153 H         1 <0>         0.1060
     78 H36        -7.8701  -13.3716    1.7394 H         1 <0>         0.1225
     79 H37        -7.9122  -15.8334    1.7689 H         1 <0>         0.1336
     80 H38        -6.0313  -17.1084    0.8202 H         1 <0>         0.1336
     81 H39        -4.1087  -15.9216   -0.1586 H         1 <0>         0.1340
     82 H40        -4.0704  -13.4598   -0.1956 H         1 <0>         0.1310
     83 H41        -8.1062  -12.6061   -0.3697 H         1 <0>         0.4306
     84 H42        -8.5187  -10.2141   -2.0211 H         1 <0>         0.1394
     85 H43        -8.0525  -11.8198   -2.6317 H         1 <0>         0.1284
     86 H44       -10.1515  -12.7481   -1.5628 H         1 <0>         0.0929
     87 H45       -11.9103  -11.1198   -0.9275 H         1 <0>         0.0829
     88 H46       -10.4677  -10.9348    0.0986 H         1 <0>         0.0495
     89 H47       -10.7758   -9.7799   -1.2204 H         1 <0>         0.0799
     90 H48       -10.1025  -12.2345   -3.9602 H         1 <0>         0.0673
     91 H49       -11.6854  -11.7719   -3.2903 H         1 <0>         0.0825
     92 H50       -10.4626  -10.5233   -3.6279 H         1 <0>         0.0669
     93 H51        -2.0587   -3.1379   -0.1307 H         1 <0>         0.3782
     94 H52         0.8775   -6.2180   -1.4745 H         1 <0>         0.3756
     95 H53        -8.4942  -11.1022    0.1806 H         1 <0>         0.4332
     96 H54        -6.8084   -9.2007   -3.8483 H         1 <0>         0.4125
@<TRIPOS>BOND
     1    1    2 1
     2    1   45 1
     3    1   46 1
     4    1   47 1
     5    2    3 1
     6    2    4 1
     7    2   48 1
     8    3   49 1
     9    3   50 1
    10    3   51 1
    11    4    5 1
    12    4   52 1
    13    4   53 1
    14    5    6 1
    15    5    7 1
    16    5   44 1
    17    7    8 1
    18    7    9 1
    19    7   43 1
    20    9   10 1
    21    9   17 1
    22    9   54 1
    23   10   11 1
    24   10   55 1
    25   10   56 1
    26   11   16 1
    27   11   12 1
    28   11   57 1
    29   12   13 1
    30   12   58 1
    31   12   59 1
    32   13   14 1
    33   13   60 1
    34   13   61 1
    35   14   15 1
    36   14   62 1
    37   14   63 1
    38   15   16 1
    39   15   64 1
    40   15   65 1
    41   16   66 1
    42   16   67 1
    43   17   18 am
    44   17   68 1
    45   18   19 2
    46   18   20 1
    47   20   21 1
    48   20   27 1
    49   20   69 1
    50   21   70 1
    51   21   71 1
    52   21   22 1
    53   22   23 2
    54   22   26 1
    55   23   24 1
    56   23   72 1
    57   24   25 2
    58   25   73 1
    59   25   26 1
    60   26   96 1
    61   27   28 am
    62   27   74 1
    63   28   29 2
    64   28   30 1
    65   30   31 1
    66   30   38 1
    67   30   75 1
    68   31   32 1
    69   31   76 1
    70   31   77 1
    71   32   37 ar
    72   32   33 ar
    73   33   34 ar
    74   33   78 1
    75   34   35 ar
    76   34   79 1
    77   35   36 ar
    78   35   80 1
    79   36   37 ar
    80   36   81 1
    81   37   82 1
    82   38   39 1
    83   38   83 1
    84   38   95 1
    85   39   40 1
    86   39   84 1
    87   39   85 1
    88   40   41 1
    89   40   42 1
    90   40   86 1
    91   41   87 1
    92   41   88 1
    93   41   89 1
    94   42   90 1
    95   42   91 1
    96   42   92 1
    97   43   93 1
    98   44   94 1
@<TRIPOS>MOLECULE
CHEMBL73278__29
   97    99     0     0     0
SMALL
USER_CHARGES

@<TRIPOS>ATOM
      1 C1          2.5590   -1.9116   -4.0518 C.3       1 <0>        -0.1508
      2 C2          2.1711   -2.7638   -2.8418 C.3       1 <0>        -0.0947
      3 C3          2.6834   -2.0974   -1.5633 C.3       1 <0>        -0.1513
      4 C4          0.6479   -2.8915   -2.7751 C.3       1 <0>        -0.1424
      5 C5          0.2651   -3.8442   -1.6408 C.3       1 <0>         0.0742
      6 H1          0.7134   -3.4987   -0.7092 H         1 <0>         0.1088
      7 C6         -1.2574   -3.8756   -1.4931 C.3       1 <0>         0.0688
      8 H2         -1.7058   -4.2212   -2.4246 H         1 <0>         0.1037
      9 C7         -1.6402   -4.8283   -0.3587 C.3       1 <0>         0.1111
     10 C8         -1.1161   -4.2772    0.9689 C.3       1 <0>        -0.1370
     11 C9         -1.4279   -5.2689    2.0915 C.3       1 <0>        -0.0785
     12 C10        -2.9324   -5.2682    2.3693 C.3       1 <0>        -0.1250
     13 C11        -3.2442   -6.2599    3.4919 C.3       1 <0>        -0.1165
     14 C12        -2.4914   -5.8491    4.7589 C.3       1 <0>        -0.1212
     15 C13        -0.9869   -5.8499    4.4811 C.3       1 <0>        -0.1222
     16 C14        -0.6751   -4.8581    3.3585 C.3       1 <0>        -0.1175
     17 N1         -3.0987   -4.9506   -0.2949 N.am      1 <0>        -0.7015
     18 C15        -3.6763   -6.1667   -0.3571 C.2       1 <0>         0.5135
     19 O1         -2.9980   -7.1503   -0.5651 O.2       1 <0>        -0.5115
     20 C16        -5.1651   -6.3043   -0.1683 C.3       1 <0>         0.1209
     21 C17        -5.8926   -5.4940   -1.2432 C.3       1 <0>        -0.0757
     22 C18        -7.3626   -5.4331   -0.9174 C.2       1 <0>         0.0375
     23 C19        -7.9537   -4.5509   -0.0892 C.2       1 <0>         0.0645
     24 N2         -9.2897   -4.8488   -0.0814 N.pl3     1 <0>        -0.4890
     25 C20        -9.4686   -5.9034   -0.9056 C.cat     1 <0>         0.2860
     26 N3         -8.3125   -6.2443   -1.4059 N.pl3     1 <0>        -0.4821
     27 N4         -5.5433   -7.7151   -0.2808 N.am      1 <0>        -0.6847
     28 C21        -6.6191   -8.1796    0.3852 C.2       1 <0>         0.5076
     29 O2         -7.3302   -7.4123    0.9988 O.2       1 <0>        -0.5231
     30 C22        -6.9382   -9.6523    0.3675 C.3       1 <0>         0.0098
     31 C23        -6.2341  -10.3408    1.5384 C.3       1 <0>        -0.0886
     32 C24        -6.4523  -11.8294    1.4506 C.ar      1 <0>        -0.1378
     33 C25        -7.5485  -12.4047    2.0655 C.ar      1 <0>        -0.1419
     34 C26        -7.7487  -13.7701    1.9850 C.ar      1 <0>        -0.1041
     35 C27        -6.8528  -14.5602    1.2892 C.ar      1 <0>        -0.0946
     36 C28        -5.7570  -13.9847    0.6735 C.ar      1 <0>        -0.1016
     37 C29        -5.5592  -12.6187    0.7504 C.ar      1 <0>        -0.1008
     38 N5         -8.3900   -9.8402    0.4902 N.4       1 <0>        -0.4968
     39 C30        -9.0595   -9.2615   -0.6824 C.3       1 <0>        -0.0204
     40 C31       -10.5652   -9.5158   -0.5871 C.3       1 <0>        -0.1210
     41 C32       -11.2640   -8.9010   -1.8014 C.3       1 <0>        -0.1540
     42 C33       -10.8270  -11.0229   -0.5569 C.3       1 <0>        -0.1760
     43 O3         -1.7342   -2.5623   -1.1934 O.3       1 <0>        -0.5521
     44 O4          0.7418   -5.1576   -1.9404 O.3       1 <0>        -0.5483
     45 H3          3.6441   -1.8206   -4.0993 H         1 <0>         0.0587
     46 H4          2.1940   -2.3863   -4.9626 H         1 <0>         0.0533
     47 H5          2.1151   -0.9207   -3.9556 H         1 <0>         0.0547
     48 H6          2.6149   -3.7547   -2.9380 H         1 <0>         0.0767
     49 H7          2.4071   -2.7046   -0.7013 H         1 <0>         0.0524
     50 H8          3.7686   -2.0065   -1.6108 H         1 <0>         0.0588
     51 H9          2.2396   -1.1065   -1.4671 H         1 <0>         0.0546
     52 H10         0.2088   -1.9112   -2.5900 H         1 <0>         0.0810
     53 H11         0.2745   -3.2841   -3.7209 H         1 <0>         0.0648
     54 H12        -1.2012   -5.8086   -0.5438 H         1 <0>         0.1242
     55 H13        -0.0379   -4.1318    0.9016 H         1 <0>         0.0881
     56 H14        -1.5987   -3.3234    1.1822 H         1 <0>         0.0718
     57 H15        -1.1144   -6.2686    1.7906 H         1 <0>         0.0719
     58 H16        -3.2459   -4.2685    2.6702 H         1 <0>         0.0612
     59 H17        -3.4687   -5.5608    1.4666 H         1 <0>         0.0607
     60 H18        -4.3161   -6.2594    3.6898 H         1 <0>         0.0512
     61 H19        -2.9308   -7.2596    3.1910 H         1 <0>         0.0563
     62 H20        -2.8049   -4.8495    5.0598 H         1 <0>         0.0626
     63 H21        -2.7136   -6.5557    5.5587 H         1 <0>         0.0613
     64 H22        -0.4506   -5.5572    5.3838 H         1 <0>         0.0669
     65 H23        -0.6734   -6.8495    4.1802 H         1 <0>         0.0613
     66 H24         0.3968   -4.8586    3.1606 H         1 <0>         0.0665
     67 H25        -0.9885   -3.8585    3.6594 H         1 <0>         0.0636
     68 H26        -3.6486   -4.1563   -0.2078 H         1 <0>         0.4059
     69 H27        -5.4423   -5.9312    0.8176 H         1 <0>         0.1392
     70 H28        -5.4851   -4.4835   -1.2744 H         1 <0>         0.1374
     71 H29        -5.7549   -5.9714   -2.2134 H         1 <0>         0.1143
     72 H30        -9.9792   -4.3883    0.4222 H         1 <0>         0.4722
     73 H31        -7.4671   -3.7605    0.4630 H         1 <0>         0.2307
     74 H32       -10.4127   -6.3827   -1.1187 H         1 <0>         0.2604
     75 H33        -5.0195   -8.3150   -0.8345 H         1 <0>         0.4273
     76 H34        -6.5935  -10.0875   -0.5705 H         1 <0>         0.1657
     77 H35        -5.1661  -10.1271    1.4966 H         1 <0>         0.1297
     78 H36        -6.6427   -9.9685    2.4778 H         1 <0>         0.1087
     79 H37        -8.2485  -11.7875    2.6092 H         1 <0>         0.1208
     80 H38        -8.6047  -14.2197    2.4660 H         1 <0>         0.1356
     81 H39        -7.0087  -15.6270    1.2269 H         1 <0>         0.1370
     82 H40        -5.0569  -14.6020    0.1302 H         1 <0>         0.1371
     83 H41        -4.7052  -12.1687    0.2663 H         1 <0>         0.1318
     84 H42        -8.5982  -10.8260    0.5439 H         1 <0>         0.4406
     85 H43        -8.8735   -8.1880   -0.7139 H         1 <0>         0.0972
     86 H44        -8.6694   -9.7246   -1.5888 H         1 <0>         0.1431
     87 H45       -10.9535   -9.0612    0.3243 H         1 <0>         0.1022
     88 H46       -10.9554   -9.4286   -2.7039 H         1 <0>         0.0800
     89 H47       -12.3440   -8.9873   -1.6814 H         1 <0>         0.0935
     90 H48       -10.9906   -7.8491   -1.8840 H         1 <0>         0.0478
     91 H49       -10.4387  -11.4775   -1.4683 H         1 <0>         0.0792
     92 H50       -10.3291  -11.4609    0.3082 H         1 <0>         0.0550
     93 H51       -11.8997  -11.2040   -0.4890 H         1 <0>         0.0951
     94 H52        -1.3758   -2.1908   -0.3757 H         1 <0>         0.3802
     95 H53         0.3835   -5.5290   -2.7581 H         1 <0>         0.3757
     96 H54        -8.7191   -9.3809    1.3261 H         1 <0>         0.4354
     97 H55        -8.1634   -6.9709   -2.0310 H         1 <0>         0.4553
@<TRIPOS>BOND
     1    1    2 1
     2    1   45 1
     3    1   46 1
     4    1   47 1
     5    2    3 1
     6    2    4 1
     7    2   48 1
     8    3   49 1
     9    3   50 1
    10    3   51 1
    11    4    5 1
    12    4   52 1
    13    4   53 1
    14    5    6 1
    15    5    7 1
    16    5   44 1
    17    7    8 1
    18    7    9 1
    19    7   43 1
    20    9   10 1
    21    9   17 1
    22    9   54 1
    23   10   11 1
    24   10   55 1
    25   10   56 1
    26   11   16 1
    27   11   12 1
    28   11   57 1
    29   12   13 1
    30   12   58 1
    31   12   59 1
    32   13   14 1
    33   13   60 1
    34   13   61 1
    35   14   15 1
    36   14   62 1
    37   14   63 1
    38   15   16 1
    39   15   64 1
    40   15   65 1
    41   16   66 1
    42   16   67 1
    43   17   18 am
    44   17   68 1
    45   18   19 2
    46   18   20 1
    47   20   21 1
    48   20   27 1
    49   20   69 1
    50   21   70 1
    51   21   71 1
    52   21   22 1
    53   22   23 2
    54   22   26 1
    55   23   24 1
    56   23   73 1
    57   24   25 1
    58   24   72 1
    59   25   74 1
    60   25   26 2
    61   26   97 1
    62   27   28 am
    63   27   75 1
    64   28   29 2
    65   28   30 1
    66   30   31 1
    67   30   38 1
    68   30   76 1
    69   31   32 1
    70   31   77 1
    71   31   78 1
    72   32   37 ar
    73   32   33 ar
    74   33   34 ar
    75   33   79 1
    76   34   35 ar
    77   34   80 1
    78   35   36 ar
    79   35   81 1
    80   36   37 ar
    81   36   82 1
    82   37   83 1
    83   38   39 1
    84   38   84 1
    85   38   96 1
    86   39   40 1
    87   39   85 1
    88   39   86 1
    89   40   41 1
    90   40   42 1
    91   40   87 1
    92   41   88 1
    93   41   89 1
    94   41   90 1
    95   42   91 1
    96   42   92 1
    97   42   93 1
    98   43   94 1
    99   44   95 1
@<TRIPOS>MOLECULE
CHEMBL73278__30
   96    98     0     0     0
SMALL
USER_CHARGES

@<TRIPOS>ATOM
      1 C1         -1.2686    3.5397   -0.0221 C.3       1 <0>        -0.1499
      2 C2         -1.7798    2.4391    0.9098 C.3       1 <0>        -0.0947
      3 C3         -2.3265    1.2784    0.0763 C.3       1 <0>        -0.1513
      4 C4         -0.6306    1.9397    1.7878 C.3       1 <0>        -0.1423
      5 C5         -1.1592    0.8978    2.7756 C.3       1 <0>         0.0738
      6 H1         -1.6810    0.1116    2.2300 H         1 <0>         0.1086
      7 C6          0.0115    0.2899    3.5508 C.3       1 <0>         0.0687
      8 H2          0.5333    1.0761    4.0964 H         1 <0>         0.1020
      9 C7         -0.5171   -0.7520    4.5387 C.3       1 <0>         0.1117
     10 C8         -1.1398   -1.9169    3.7667 C.3       1 <0>        -0.1340
     11 C9         -1.8070   -2.8813    4.7494 C.3       1 <0>        -0.0784
     12 C10        -0.7370   -3.5458    5.6179 C.3       1 <0>        -0.1238
     13 C11        -1.4042   -4.5102    6.6006 C.3       1 <0>        -0.1188
     14 C12        -2.1685   -5.5833    5.8226 C.3       1 <0>        -0.1200
     15 C13        -3.2386   -4.9187    4.9541 C.3       1 <0>        -0.1212
     16 C14        -2.5713   -3.9544    3.9714 C.3       1 <0>        -0.1152
     17 N1          0.5877   -1.2476    5.3633 N.am      1 <0>        -0.7089
     18 C15         0.5416   -1.1125    6.7035 C.2       1 <0>         0.5153
     19 O1         -0.4533   -0.6656    7.2340 O.2       1 <0>        -0.5131
     20 C16         1.7262   -1.5168    7.5428 C.3       1 <0>         0.1274
     21 C17         2.9482   -0.6938    7.1302 C.3       1 <0>        -0.0704
     22 C18         4.1596   -1.1817    7.8821 C.2       1 <0>         0.0421
     23 C19         4.9508   -2.2114    7.5253 C.2       1 <0>         0.0540
     24 N2          5.9266   -2.3104    8.4800 N.pl3     1 <0>        -0.4973
     25 C20         5.6977   -1.3370    9.3877 C.cat     1 <0>         0.3117
     26 N3          4.6422   -0.6629    9.0209 N.pl3     1 <0>        -0.4720
     27 N4          1.4286   -1.2740    8.9566 N.am      1 <0>        -0.7197
     28 C21         2.0659   -1.9813    9.9105 C.2       1 <0>         0.5190
     29 O2          2.8858   -2.8188    9.5985 O.2       1 <0>        -0.5132
     30 C22         1.7598   -1.7316   11.3648 C.3       1 <0>         0.0773
     31 C23         0.5394   -2.5566   11.7781 C.3       1 <0>        -0.0794
     32 C24         0.1587   -2.2150   13.1956 C.ar      1 <0>        -0.0984
     33 C25         0.7103   -2.9206   14.2486 C.ar      1 <0>        -0.1218
     34 C26         0.3611   -2.6072   15.5489 C.ar      1 <0>        -0.1120
     35 C27        -0.5393   -1.5879   15.7962 C.ar      1 <0>        -0.1138
     36 C28        -1.0902   -0.8817   14.7432 C.ar      1 <0>        -0.1126
     37 C29        -0.7377   -1.1922   13.4432 C.ar      1 <0>        -0.1133
     38 N5          2.9155   -2.1232   12.1827 N.3       1 <0>        -0.6684
     39 C30         3.8186   -0.9846   12.3973 C.3       1 <0>         0.0643
     40 C31         5.0746   -1.4610   13.1297 C.3       1 <0>        -0.0959
     41 C32         6.0688   -0.3035   13.2430 C.3       1 <0>        -0.1525
     42 C33         4.6951   -1.9462   14.5303 C.3       1 <0>        -0.1533
     43 O3          0.9146   -0.3354    2.6367 O.3       1 <0>        -0.5521
     44 O4         -2.0622    1.5231    3.6897 O.3       1 <0>        -0.5486
     45 H3         -0.4185    3.1664   -0.5932 H         1 <0>         0.0541
     46 H4         -2.0642    3.8353   -0.7060 H         1 <0>         0.0573
     47 H5         -0.9588    4.4014    0.5691 H         1 <0>         0.0530
     48 H6         -2.5732    2.8378    1.5419 H         1 <0>         0.0761
     49 H7         -1.5330    0.8797   -0.5559 H         1 <0>         0.0542
     50 H8         -2.6907    0.4943    0.7401 H         1 <0>         0.0540
     51 H9         -3.1452    1.6342   -0.5492 H         1 <0>         0.0572
     52 H10         0.1369    1.4880    1.1593 H         1 <0>         0.0807
     53 H11        -0.2029    2.7779    2.3379 H         1 <0>         0.0643
     54 H12        -1.2720   -0.2955    5.1789 H         1 <0>         0.1222
     55 H13        -1.8858   -1.5339    3.0704 H         1 <0>         0.0827
     56 H14        -0.3621   -2.4429    3.2130 H         1 <0>         0.0699
     57 H15        -2.5003   -2.3303    5.3850 H         1 <0>         0.0724
     58 H16        -0.0438   -4.0968    4.9822 H         1 <0>         0.0564
     59 H17        -0.1925   -2.7813    6.1721 H         1 <0>         0.0689
     60 H18        -0.6419   -4.9836    7.2193 H         1 <0>         0.0547
     61 H19        -2.0975   -3.9592    7.2362 H         1 <0>         0.0592
     62 H20        -1.4753   -6.1342    5.1870 H         1 <0>         0.0601
     63 H21        -2.6439   -6.2703    6.5227 H         1 <0>         0.0604
     64 H22        -3.7831   -5.6832    4.3999 H         1 <0>         0.0633
     65 H23        -3.9318   -4.3678    5.5898 H         1 <0>         0.0614
     66 H24        -3.3336   -3.4809    3.3527 H         1 <0>         0.0628
     67 H25        -1.8781   -4.5053    3.3358 H         1 <0>         0.0613
     68 H26         1.3524   -1.6731    4.9448 H         1 <0>         0.4049
     69 H27         1.9338   -2.5761    7.3919 H         1 <0>         0.1261
     70 H28         3.1163   -0.8049    6.0590 H         1 <0>         0.1261
     71 H29         2.7744    0.3567    7.3636 H         1 <0>         0.1042
     72 H30         6.6480   -2.9586    8.5007 H         1 <0>         0.4658
     73 H31         4.8370   -2.8387    6.6535 H         1 <0>         0.2224
     74 H32         6.2920   -1.1457   10.2689 H         1 <0>         0.2555
     75 H33         0.7729   -0.6041    9.2061 H         1 <0>         0.4156
     76 H34         1.5503   -0.6725   11.5153 H         1 <0>         0.0720
     77 H35        -0.2943   -2.3303   11.1134 H         1 <0>         0.0886
     78 H36         0.7790   -3.6179   11.7120 H         1 <0>         0.0909
     79 H37         1.4138   -3.7169   14.0554 H         1 <0>         0.1236
     80 H38         0.7915   -3.1589   16.3715 H         1 <0>         0.1264
     81 H39        -0.8127   -1.3435   16.8120 H         1 <0>         0.1262
     82 H40        -1.7940   -0.0855   14.9364 H         1 <0>         0.1262
     83 H41        -1.1653   -0.6380   12.6207 H         1 <0>         0.1225
     84 H42         2.6186   -2.5199   13.0617 H         1 <0>         0.3625
     85 H43         4.0994   -0.5572   11.4347 H         1 <0>         0.0427
     86 H44         3.3131   -0.2280   12.9973 H         1 <0>         0.0425
     87 H45         5.5315   -2.2792   12.5731 H         1 <0>         0.0787
     88 H46         5.6119    0.5147   13.7996 H         1 <0>         0.0615
     89 H47         6.9636   -0.6428   13.7648 H         1 <0>         0.0670
     90 H48         6.3391    0.0422   12.2452 H         1 <0>         0.0451
     91 H49         4.2382   -1.1279   15.0869 H         1 <0>         0.0567
     92 H50         3.9869   -2.7708   14.4496 H         1 <0>         0.0577
     93 H51         5.5899   -2.2855   15.0521 H         1 <0>         0.0629
     94 H52         0.5172   -1.0467    2.1159 H         1 <0>         0.3787
     95 H53        -1.6649    2.2344    4.2106 H         1 <0>         0.3754
     96 H54         4.2651    0.0930    9.4977 H         1 <0>         0.4553
@<TRIPOS>BOND
     1    1    2 1
     2    1   45 1
     3    1   46 1
     4    1   47 1
     5    2    3 1
     6    2    4 1
     7    2   48 1
     8    3   49 1
     9    3   50 1
    10    3   51 1
    11    4    5 1
    12    4   52 1
    13    4   53 1
    14    5    6 1
    15    5    7 1
    16    5   44 1
    17    7    8 1
    18    7    9 1
    19    7   43 1
    20    9   10 1
    21    9   17 1
    22    9   54 1
    23   10   11 1
    24   10   55 1
    25   10   56 1
    26   11   16 1
    27   11   12 1
    28   11   57 1
    29   12   13 1
    30   12   58 1
    31   12   59 1
    32   13   14 1
    33   13   60 1
    34   13   61 1
    35   14   15 1
    36   14   62 1
    37   14   63 1
    38   15   16 1
    39   15   64 1
    40   15   65 1
    41   16   66 1
    42   16   67 1
    43   17   18 am
    44   17   68 1
    45   18   19 2
    46   18   20 1
    47   20   21 1
    48   20   27 1
    49   20   69 1
    50   21   70 1
    51   21   71 1
    52   21   22 1
    53   22   23 2
    54   22   26 1
    55   23   24 1
    56   23   73 1
    57   24   25 1
    58   24   72 1
    59   25   74 1
    60   25   26 2
    61   26   96 1
    62   27   28 am
    63   27   75 1
    64   28   29 2
    65   28   30 1
    66   30   31 1
    67   30   38 1
    68   30   76 1
    69   31   32 1
    70   31   77 1
    71   31   78 1
    72   32   37 ar
    73   32   33 ar
    74   33   34 ar
    75   33   79 1
    76   34   35 ar
    77   34   80 1
    78   35   36 ar
    79   35   81 1
    80   36   37 ar
    81   36   82 1
    82   37   83 1
    83   38   39 1
    84   38   84 1
    85   39   40 1
    86   39   85 1
    87   39   86 1
    88   40   41 1
    89   40   42 1
    90   40   87 1
    91   41   88 1
    92   41   89 1
    93   41   90 1
    94   42   91 1
    95   42   92 1
    96   42   93 1
    97   43   94 1
    98   44   95 1
@<TRIPOS>MOLECULE
CHEMBL73278__31
   96    98     0     0     0
SMALL
USER_CHARGES

@<TRIPOS>ATOM
      1 C1          1.6542    1.1124   -2.4093 C.3       1 <0>        -0.1498
      2 C2          0.7316    0.0972   -3.0868 C.3       1 <0>        -0.0948
      3 C3          1.2445   -1.3185   -2.8155 C.3       1 <0>        -0.1505
      4 C4         -0.6849    0.2424   -2.5271 C.3       1 <0>        -0.1429
      5 C5         -1.6392   -0.6575   -3.3147 C.3       1 <0>         0.0751
      6 H1         -1.2614   -1.6799   -3.3102 H         1 <0>         0.1070
      7 C6         -3.0246   -0.6229   -2.6663 C.3       1 <0>         0.0678
      8 H2         -3.4025    0.3995   -2.6708 H         1 <0>         0.1031
      9 C7         -3.9789   -1.5228   -3.4540 C.3       1 <0>         0.1125
     10 C8         -3.5165   -2.9771   -3.3435 C.3       1 <0>        -0.1344
     11 C9         -4.3844   -3.8581   -4.2442 C.3       1 <0>        -0.0768
     12 C10        -5.8066   -3.9165   -3.6831 C.3       1 <0>        -0.1257
     13 C11        -6.6745   -4.7975   -4.5838 C.3       1 <0>        -0.1166
     14 C12        -6.0878   -6.2096   -4.6343 C.3       1 <0>        -0.1202
     15 C13        -4.6656   -6.1512   -5.1955 C.3       1 <0>        -0.1203
     16 C14        -3.7977   -5.2702   -4.2947 C.3       1 <0>        -0.1160
     17 N1         -5.3319   -1.3977   -2.9062 N.am      1 <0>        -0.7080
     18 C15        -6.3402   -0.9704   -3.6919 C.2       1 <0>         0.5115
     19 O1         -6.1458   -0.7689   -4.8720 O.2       1 <0>        -0.5261
     20 C16        -7.7090   -0.7428   -3.1042 C.3       1 <0>         0.1356
     21 C17        -7.6221    0.3177   -2.0048 C.3       1 <0>        -0.0419
     22 C18        -8.9653    0.4596   -1.3364 C.2       1 <0>         0.0038
     23 C19        -9.2058    0.3624   -0.0149 C.2       1 <0>        -0.0315
     24 N2        -10.5498    0.5558    0.1583 N.pl3     1 <0>        -0.5610
     25 C20       -11.0842    0.7645   -1.0643 C.2       1 <0>         0.1744
     26 N3        -10.1298    0.7105   -1.9527 N.2       1 <0>        -0.4875
     27 N4         -8.6213   -0.2838   -4.1545 N.am      1 <0>        -0.6727
     28 C21        -9.8656   -0.7952   -4.2371 C.2       1 <0>         0.5375
     29 O2        -10.2650   -1.5593   -3.3842 O.2       1 <0>        -0.5198
     30 C22       -10.7605   -0.4174   -5.3893 C.3       1 <0>         0.0145
     31 C23       -10.2814   -1.1227   -6.6597 C.3       1 <0>        -0.0946
     32 C24       -11.0987   -0.6511   -7.8347 C.ar      1 <0>        -0.1249
     33 C25       -12.2628   -1.3131   -8.1772 C.ar      1 <0>        -0.1415
     34 C26       -13.0125   -0.8805   -9.2550 C.ar      1 <0>        -0.1063
     35 C27       -12.5983    0.2144   -9.9901 C.ar      1 <0>        -0.1026
     36 C28       -11.4346    0.8771   -9.6471 C.ar      1 <0>        -0.1045
     37 C29       -10.6872    0.4471   -8.5666 C.ar      1 <0>        -0.1016
     38 N5        -12.1398   -0.8266   -5.0926 N.4       1 <0>        -0.4920
     39 C30       -12.6585   -0.0260   -3.9755 C.3       1 <0>        -0.0206
     40 C31       -14.1258   -0.3835   -3.7300 C.3       1 <0>        -0.1162
     41 C32       -14.6170    0.3199   -2.4631 C.3       1 <0>        -0.1514
     42 C33       -14.9679    0.0700   -4.9242 C.3       1 <0>        -0.1703
     43 O3         -2.9319   -1.0905   -1.3192 O.3       1 <0>        -0.5505
     44 O4         -1.7320   -0.1899   -4.6619 O.3       1 <0>        -0.5497
     45 H3          2.6791    0.9518   -2.7437 H         1 <0>         0.0567
     46 H4          1.3398    2.1221   -2.6736 H         1 <0>         0.0532
     47 H5          1.6010    0.9867   -1.3279 H         1 <0>         0.0541
     48 H6          0.7181    0.2790   -4.1614 H         1 <0>         0.0764
     49 H7          1.2580   -1.5004   -1.7408 H         1 <0>         0.0543
     50 H8          0.5872   -2.0418   -3.2981 H         1 <0>         0.0531
     51 H9          2.2537   -1.4220   -3.2142 H         1 <0>         0.0565
     52 H10        -0.6926   -0.0506   -1.4772 H         1 <0>         0.0808
     53 H11        -1.0066    1.2800   -2.6171 H         1 <0>         0.0649
     54 H12        -3.9816   -1.2210   -4.5013 H         1 <0>         0.1210
     55 H13        -2.4751   -3.0519   -3.6565 H         1 <0>         0.0820
     56 H14        -3.6101   -3.3106   -2.3100 H         1 <0>         0.0696
     57 H15        -4.4076   -3.4381   -5.2498 H         1 <0>         0.0715
     58 H16        -5.7834   -4.3364   -2.6775 H         1 <0>         0.0572
     59 H17        -6.2246   -2.9105   -3.6471 H         1 <0>         0.0711
     60 H18        -7.6877   -4.8391   -4.1841 H         1 <0>         0.0535
     61 H19        -6.6977   -4.3775   -5.5894 H         1 <0>         0.0571
     62 H20        -6.0646   -6.6296   -3.6287 H         1 <0>         0.0607
     63 H21        -6.7061   -6.8373   -5.2760 H         1 <0>         0.0589
     64 H22        -4.2476   -7.1572   -5.2314 H         1 <0>         0.0628
     65 H23        -4.6887   -5.7313   -6.2010 H         1 <0>         0.0606
     66 H24        -2.7845   -5.2286   -4.6945 H         1 <0>         0.0628
     67 H25        -3.7745   -5.6902   -3.2891 H         1 <0>         0.0616
     68 H26        -5.5021   -1.6224   -1.9781 H         1 <0>         0.4061
     69 H27        -8.0822   -1.6753   -2.6807 H         1 <0>         0.1276
     70 H28        -6.8790    0.0159   -1.2667 H         1 <0>         0.0969
     71 H29        -7.3318    1.2725   -2.4432 H         1 <0>         0.0880
     72 H30       -11.0289    0.5449    1.0016 H         1 <0>         0.4255
     73 H31        -8.4782    0.1688    0.7594 H         1 <0>         0.1784
     74 H32       -12.1277    0.9495   -1.2719 H         1 <0>         0.1989
     75 H33        -8.3299    0.3881   -4.7905 H         1 <0>         0.4136
     76 H34       -10.7257    0.6619   -5.5378 H         1 <0>         0.1614
     77 H35        -9.2306   -0.8889   -6.8308 H         1 <0>         0.1280
     78 H36       -10.3997   -2.2000   -6.5438 H         1 <0>         0.1034
     79 H37       -12.5864   -2.1686   -7.6029 H         1 <0>         0.1214
     80 H38       -13.9216   -1.3982   -9.5230 H         1 <0>         0.1321
     81 H39       -13.1836    0.5520  -10.8326 H         1 <0>         0.1324
     82 H40       -11.1108    1.7323  -10.2216 H         1 <0>         0.1333
     83 H41        -9.7800    0.9670   -8.2964 H         1 <0>         0.1317
     84 H42       -12.7166   -0.6805   -5.9075 H         1 <0>         0.4256
     85 H43       -12.0781   -0.2365   -3.0773 H         1 <0>         0.1508
     86 H44       -12.5786    1.0333   -4.2198 H         1 <0>         0.1298
     87 H45       -14.2212   -1.4623   -3.6068 H         1 <0>         0.0935
     88 H46       -14.4365    1.3914   -2.5493 H         1 <0>         0.0683
     89 H47       -15.6848    0.1401   -2.3385 H         1 <0>         0.0792
     90 H48       -14.0795   -0.0707   -1.5991 H         1 <0>         0.0650
     91 H49       -14.6180   -0.4311   -5.8267 H         1 <0>         0.0504
     92 H50       -16.0132   -0.1847   -4.7492 H         1 <0>         0.0834
     93 H51       -14.8725    1.1488   -5.0473 H         1 <0>         0.0729
     94 H52        -2.6018   -1.9959   -1.2390 H         1 <0>         0.3771
     95 H53        -2.0621    0.7155   -4.7421 H         1 <0>         0.3757
     96 H54       -12.1541   -1.8037   -4.8412 H         1 <0>         0.4298
@<TRIPOS>BOND
     1    1    2 1
     2    1   45 1
     3    1   46 1
     4    1   47 1
     5    2    3 1
     6    2    4 1
     7    2   48 1
     8    3   49 1
     9    3   50 1
    10    3   51 1
    11    4    5 1
    12    4   52 1
    13    4   53 1
    14    5    6 1
    15    5    7 1
    16    5   44 1
    17    7    8 1
    18    7    9 1
    19    7   43 1
    20    9   10 1
    21    9   17 1
    22    9   54 1
    23   10   11 1
    24   10   55 1
    25   10   56 1
    26   11   16 1
    27   11   12 1
    28   11   57 1
    29   12   13 1
    30   12   58 1
    31   12   59 1
    32   13   14 1
    33   13   60 1
    34   13   61 1
    35   14   15 1
    36   14   62 1
    37   14   63 1
    38   15   16 1
    39   15   64 1
    40   15   65 1
    41   16   66 1
    42   16   67 1
    43   17   18 am
    44   17   68 1
    45   18   19 2
    46   18   20 1
    47   20   21 1
    48   20   27 1
    49   20   69 1
    50   21   70 1
    51   21   71 1
    52   21   22 1
    53   22   23 2
    54   22   26 1
    55   23   24 1
    56   23   73 1
    57   24   25 1
    58   24   72 1
    59   25   74 1
    60   25   26 2
    61   27   28 am
    62   27   75 1
    63   28   29 2
    64   28   30 1
    65   30   31 1
    66   30   38 1
    67   30   76 1
    68   31   32 1
    69   31   77 1
    70   31   78 1
    71   32   37 ar
    72   32   33 ar
    73   33   34 ar
    74   33   79 1
    75   34   35 ar
    76   34   80 1
    77   35   36 ar
    78   35   81 1
    79   36   37 ar
    80   36   82 1
    81   37   83 1
    82   38   39 1
    83   38   84 1
    84   38   96 1
    85   39   40 1
    86   39   85 1
    87   39   86 1
    88   40   41 1
    89   40   42 1
    90   40   87 1
    91   41   88 1
    92   41   89 1
    93   41   90 1
    94   42   91 1
    95   42   92 1
    96   42   93 1
    97   43   94 1
    98   44   95 1
@<TRIPOS>MOLECULE
CHEMBL308103
   92    93     0     0     0
SMALL
USER_CHARGES

@<TRIPOS>ATOM
      1 C1          0.6514   -0.2560    1.3577 C.3       1 <0>        -0.1516
      2 C2          0.0379   -0.0876   -0.0338 C.3       1 <0>        -0.0942
      3 C3          0.8806   -0.8497   -1.0584 C.3       1 <0>        -0.1468
      4 C4         -1.3882   -0.6419   -0.0329 C.3       1 <0>        -0.1476
      5 C5         -2.0504   -0.3483   -1.3805 C.3       1 <0>         0.0800
      6 H1         -1.4402   -0.7627   -2.1831 H         1 <0>         0.0951
      7 C6         -3.4406   -0.9861   -1.4154 C.3       1 <0>         0.0647
      8 H2         -4.0508   -0.5716   -0.6129 H         1 <0>         0.1186
      9 C7         -4.1028   -0.6924   -2.7631 C.3       1 <0>         0.1166
     10 C8         -5.4931   -1.3302   -2.7980 C.3       1 <0>        -0.1242
     11 C9         -6.2040   -0.9331   -4.0933 C.3       1 <0>        -0.0886
     12 C10        -7.5421   -1.6692   -4.1869 C.3       1 <0>        -0.1515
     13 C11        -6.4511    0.5768   -4.0971 C.3       1 <0>        -0.1424
     14 N1         -3.2828   -1.2495   -3.8417 N.am      1 <0>        -0.7142
     15 C12        -3.3513   -0.7235   -5.0808 C.2       1 <0>         0.5117
     16 O1         -4.0919    0.2109   -5.3027 O.2       1 <0>        -0.4933
     17 C13        -2.5078   -1.2966   -6.1903 C.3       1 <0>         0.1299
     18 C14        -1.0282   -1.1776   -5.8196 C.3       1 <0>        -0.0712
     19 C15        -0.1906   -1.8596   -6.8705 C.2       1 <0>         0.0425
     20 C16         0.2343   -1.3093   -8.0238 C.2       1 <0>         0.0446
     21 N2          0.9598   -2.2690   -8.6769 N.pl3     1 <0>        -0.5000
     22 C17         0.9529   -3.3730   -7.8993 C.cat     1 <0>         0.3128
     23 N3          0.2673   -3.1192   -6.8183 N.pl3     1 <0>        -0.4676
     24 N4         -2.7619   -0.5566   -7.4289 N.am      1 <0>        -0.7042
     25 C18        -2.5487   -1.1462   -8.6220 C.2       1 <0>         0.5219
     26 O2         -2.1464   -2.2894   -8.6702 O.2       1 <0>        -0.5383
     27 C19        -2.8101   -0.3851   -9.8961 C.3       1 <0>         0.1556
     28 C20        -4.2811    0.0327   -9.9479 C.3       1 <0>        -0.0911
     29 C21        -4.5153    0.8975  -11.1597 C.ar      1 <0>        -0.0747
     30 C22        -4.3631    2.2685  -11.0702 C.ar      1 <0>        -0.1029
     31 C23        -4.5779    3.0617  -12.1817 C.ar      1 <0>        -0.1093
     32 C24        -4.9445    2.4839  -13.3828 C.ar      1 <0>        -0.1144
     33 C25        -5.0958    1.1128  -13.4725 C.ar      1 <0>        -0.1083
     34 C26        -4.8768    0.3192  -12.3621 C.ar      1 <0>        -0.1083
     35 N5         -2.5042   -1.2389  -11.0465 N.am      1 <0>        -0.7022
     36 C27        -2.1709   -0.6833  -12.2283 C.2       1 <0>         0.6511
     37 O3         -2.1241    0.5258  -12.3396 O.2       1 <0>        -0.5387
     38 O4         -1.8897   -1.4680  -13.2856 O.3       1 <0>        -0.3583
     39 C28        -1.5441   -0.8116  -14.5070 C.3       1 <0>         0.1389
     40 C29        -0.2968    0.0472  -14.2892 C.3       1 <0>        -0.1841
     41 C30        -1.2604   -1.8586  -15.5861 C.3       1 <0>        -0.1429
     42 C31        -2.7051    0.0792  -14.9535 C.3       1 <0>        -0.1945
     43 O5         -3.3209   -2.3994   -1.2414 O.3       1 <0>        -0.5379
     44 O6         -2.1701    1.0650   -1.5546 O.3       1 <0>        -0.5509
     45 H3          1.6949    0.0579    1.3351 H         1 <0>         0.0564
     46 H4          0.1030    0.3569    2.0731 H         1 <0>         0.0561
     47 H5          0.5932   -1.3027    1.6562 H         1 <0>         0.0547
     48 H6          0.0163    0.9702   -0.2958 H         1 <0>         0.0771
     49 H7          0.9021   -1.9076   -0.7964 H         1 <0>         0.0533
     50 H8          0.4435   -0.7298   -2.0497 H         1 <0>         0.0473
     51 H9          1.8966   -0.4548   -1.0590 H         1 <0>         0.0557
     52 H10        -1.3592   -1.7191    0.1307 H         1 <0>         0.0803
     53 H11        -1.9615   -0.1687    0.7644 H         1 <0>         0.0696
     54 H12        -4.1942    0.3856   -2.8958 H         1 <0>         0.1151
     55 H13        -5.3963   -2.4151   -2.7545 H         1 <0>         0.0702
     56 H14        -6.0738   -0.9827   -1.9435 H         1 <0>         0.0760
     57 H15        -5.5812   -1.2016   -4.9466 H         1 <0>         0.0668
     58 H16        -8.1649   -1.4008   -3.3336 H         1 <0>         0.0552
     59 H17        -8.0485   -1.3863   -5.1097 H         1 <0>         0.0538
     60 H18        -7.3660   -2.7449   -4.1842 H         1 <0>         0.0495
     61 H19        -5.4979    1.1011   -4.0304 H         1 <0>         0.0707
     62 H20        -6.9576    0.8597   -5.0199 H         1 <0>         0.0491
     63 H21        -7.0740    0.8452   -3.2438 H         1 <0>         0.0442
     64 H22        -2.6905   -1.9969   -3.6642 H         1 <0>         0.3908
     65 H23        -2.7627   -2.3464   -6.3354 H         1 <0>         0.1226
     66 H24        -0.7517   -0.1248   -5.7615 H         1 <0>         0.1246
     67 H25        -0.8563   -1.6522   -4.8535 H         1 <0>         0.1084
     68 H26         1.3971   -2.1738   -9.5374 H         1 <0>         0.4656
     69 H27         0.0398   -0.3042   -8.3676 H         1 <0>         0.2133
     70 H28         1.4380   -4.3096   -8.1316 H         1 <0>         0.2641
     71 H29        -3.0837    0.3576   -7.3904 H         1 <0>         0.4225
     72 H30        -2.1790    0.5031   -9.9247 H         1 <0>         0.1233
     73 H31        -4.9093   -0.8560  -10.0088 H         1 <0>         0.0834
     74 H32        -4.5314    0.5935   -9.0474 H         1 <0>         0.0920
     75 H33        -4.0767    2.7199  -10.1318 H         1 <0>         0.1160
     76 H34        -4.4597    4.1329  -12.1117 H         1 <0>         0.1197
     77 H35        -5.1130    3.1037  -14.2511 H         1 <0>         0.1191
     78 H36        -5.3826    0.6614  -14.4108 H         1 <0>         0.1168
     79 H37        -4.9914   -0.7524  -12.4330 H         1 <0>         0.1085
     80 H38        -2.5415   -2.2041  -10.9577 H         1 <0>         0.4120
     81 H39         0.5304   -0.5874  -13.9712 H         1 <0>         0.0545
     82 H40        -0.0332    0.5479  -15.2209 H         1 <0>         0.0723
     83 H41        -0.4989    0.7931  -13.5205 H         1 <0>         0.0871
     84 H42        -2.1490   -2.4704  -15.7412 H         1 <0>         0.0676
     85 H43        -0.9968   -1.3579  -16.5177 H         1 <0>         0.0833
     86 H44        -0.4333   -2.4932  -15.2680 H         1 <0>         0.0644
     87 H45        -2.9073    0.8250  -14.1847 H         1 <0>         0.1016
     88 H46        -2.4416    0.5799  -15.8851 H         1 <0>         0.0690
     89 H47        -3.5938   -0.5327  -15.1086 H         1 <0>         0.0589
     90 H48        -2.7896   -2.8357   -1.9214 H         1 <0>         0.3647
     91 H49        -2.7014    1.5014   -0.8745 H         1 <0>         0.3810
     92 H50         0.1117   -3.7436   -6.0925 H         1 <0>         0.4617
@<TRIPOS>BOND
     1    1    2 1
     2    1   45 1
     3    1   46 1
     4    1   47 1
     5    2    3 1
     6    2    4 1
     7    2   48 1
     8    3   49 1
     9    3   50 1
    10    3   51 1
    11    4    5 1
    12    4   52 1
    13    4   53 1
    14    5    6 1
    15    5    7 1
    16    5   44 1
    17    7    8 1
    18    7    9 1
    19    7   43 1
    20    9   10 1
    21    9   14 1
    22    9   54 1
    23   10   11 1
    24   10   55 1
    25   10   56 1
    26   11   12 1
    27   11   13 1
    28   11   57 1
    29   12   58 1
    30   12   59 1
    31   12   60 1
    32   13   61 1
    33   13   62 1
    34   13   63 1
    35   14   15 am
    36   14   64 1
    37   15   16 2
    38   15   17 1
    39   17   18 1
    40   17   24 1
    41   17   65 1
    42   18   66 1
    43   18   67 1
    44   18   19 1
    45   19   20 2
    46   19   23 1
    47   20   21 1
    48   20   69 1
    49   21   22 1
    50   21   68 1
    51   22   70 1
    52   22   23 2
    53   23   92 1
    54   24   25 am
    55   24   71 1
    56   25   26 2
    57   25   27 1
    58   27   28 1
    59   27   35 1
    60   27   72 1
    61   28   29 1
    62   28   73 1
    63   28   74 1
    64   29   34 ar
    65   29   30 ar
    66   30   31 ar
    67   30   75 1
    68   31   32 ar
    69   31   76 1
    70   32   33 ar
    71   32   77 1
    72   33   34 ar
    73   33   78 1
    74   34   79 1
    75   35   36 am
    76   35   80 1
    77   36   37 2
    78   36   38 1
    79   38   39 1
    80   39   40 1
    81   39   41 1
    82   39   42 1
    83   40   81 1
    84   40   82 1
    85   40   83 1
    86   41   84 1
    87   41   85 1
    88   41   86 1
    89   42   87 1
    90   42   88 1
    91   42   89 1
    92   43   90 1
    93   44   91 1
@<TRIPOS>MOLECULE
CHEMBL308103__1
   91    92     0     0     0
SMALL
USER_CHARGES

@<TRIPOS>ATOM
      1 C1         -0.0187    1.5258    0.0104 C.3       1 <0>        -0.1491
      2 C2          0.0021   -0.0041    0.0020 C.3       1 <0>        -0.0939
      3 C3          0.7421   -0.5109    1.2415 C.3       1 <0>        -0.1494
      4 C4         -1.4333   -0.5336    0.0129 C.3       1 <0>        -0.1451
      5 C5         -1.4157   -2.0577   -0.1212 C.3       1 <0>         0.0763
      6 H1         -0.7891   -2.4841    0.6622 H         1 <0>         0.1018
      7 C6         -2.8406   -2.5981    0.0146 C.3       1 <0>         0.0674
      8 H2         -3.4671   -2.1717   -0.7688 H         1 <0>         0.1131
      9 C7         -2.8229   -4.1221   -0.1195 C.3       1 <0>         0.1169
     10 C8         -4.2478   -4.6626    0.0163 C.3       1 <0>        -0.1216
     11 C9         -4.2480   -6.1707   -0.2413 C.3       1 <0>        -0.0914
     12 C10        -5.6479   -6.7319    0.0160 C.3       1 <0>        -0.1487
     13 C11        -3.8496   -6.4400   -1.6938 C.3       1 <0>        -0.1392
     14 N1         -1.9808   -4.6953    0.9334 N.am      1 <0>        -0.7177
     15 C12        -1.4030   -5.8995    0.7534 C.2       1 <0>         0.5160
     16 O1         -1.5802   -6.5087   -0.2802 O.2       1 <0>        -0.5144
     17 C13        -0.5368   -6.4891    1.8365 C.3       1 <0>         0.1394
     18 C14         0.6403   -5.5522    2.1147 C.3       1 <0>        -0.0374
     19 C15         1.4376   -6.0794    3.2798 C.2       1 <0>         0.0069
     20 C16         2.7578   -6.3451    3.2798 C.2       1 <0>        -0.0568
     21 N2          3.0700   -6.8013    4.5320 N.pl3     1 <0>        -0.5701
     22 C17         1.9289   -6.7984    5.2542 C.2       1 <0>         0.1945
     23 N3          0.9577   -6.3608    4.5003 N.2       1 <0>        -0.4524
     24 N4         -0.0307   -7.7932    1.4014 N.am      1 <0>        -0.7060
     25 C18         0.3222   -8.7183    2.3157 C.2       1 <0>         0.5099
     26 O2          0.2209   -8.4712    3.4987 O.2       1 <0>        -0.4953
     27 C19         0.8428  -10.0598    1.8681 C.3       1 <0>         0.1594
     28 C20        -0.2205  -10.7631    1.0221 C.3       1 <0>        -0.0917
     29 C21         0.3435  -12.0482    0.4730 C.ar      1 <0>        -0.0646
     30 C22         0.9931  -12.0522   -0.7472 C.ar      1 <0>        -0.1033
     31 C23         1.5105  -13.2310   -1.2508 C.ar      1 <0>        -0.1113
     32 C24         1.3786  -14.4057   -0.5341 C.ar      1 <0>        -0.1207
     33 C25         0.7298  -14.4015    0.6865 C.ar      1 <0>        -0.1098
     34 C26         0.2162  -13.2219    1.1922 C.ar      1 <0>        -0.1084
     35 N5          1.1538  -10.8794    3.0419 N.am      1 <0>        -0.6946
     36 C27         2.0651  -11.8682    2.9511 C.2       1 <0>         0.6538
     37 O3          2.6289  -12.0799    1.8957 O.2       1 <0>        -0.5478
     38 O4          2.3509  -12.6214    4.0299 O.3       1 <0>        -0.3592
     39 C28         3.3267  -13.6517    3.8617 C.3       1 <0>         0.1384
     40 C29         4.6564  -13.0294    3.4310 C.3       1 <0>        -0.1842
     41 C30         3.5166  -14.3952    5.1853 C.3       1 <0>        -0.1415
     42 C31         2.8519  -14.6337    2.7888 C.3       1 <0>        -0.1922
     43 O5         -3.3665   -2.2385    1.2937 O.3       1 <0>        -0.5435
     44 O6         -0.8897   -2.4172   -1.4003 O.3       1 <0>        -0.5485
     45 H3          1.0039    1.9031    0.0027 H         1 <0>         0.0546
     46 H4         -0.5459    1.8868   -0.8726 H         1 <0>         0.0531
     47 H5         -0.5289    1.8773    0.9072 H         1 <0>         0.0539
     48 H6          0.5123   -0.3556   -0.8948 H         1 <0>         0.0756
     49 H7          0.2319   -0.1594    2.1383 H         1 <0>         0.0539
     50 H8          0.7568   -1.6008    1.2356 H         1 <0>         0.0541
     51 H9          1.7647   -0.1336    1.2338 H         1 <0>         0.0542
     52 H10        -1.9156   -0.2570    0.9504 H         1 <0>         0.0803
     53 H11        -1.9862   -0.1019   -0.8214 H         1 <0>         0.0657
     54 H12        -2.4217   -4.3964   -1.0952 H         1 <0>         0.1103
     55 H13        -4.6166   -4.4659    1.0230 H         1 <0>         0.0694
     56 H14        -4.8941   -4.1698   -0.7101 H         1 <0>         0.0700
     57 H15        -3.5345   -6.6535    0.4265 H         1 <0>         0.0731
     58 H16        -6.3613   -6.2492   -0.6519 H         1 <0>         0.0512
     59 H17        -5.6480   -7.8064   -0.1675 H         1 <0>         0.0519
     60 H18        -5.9316   -6.5401    1.0508 H         1 <0>         0.0495
     61 H19        -2.8523   -6.0402   -1.8772 H         1 <0>         0.0727
     62 H20        -3.8498   -7.5144   -1.8774 H         1 <0>         0.0467
     63 H21        -4.5631   -5.9573   -2.3617 H         1 <0>         0.0392
     64 H22        -1.8392   -4.2080    1.7601 H         1 <0>         0.3947
     65 H23        -1.1255   -6.6127    2.7456 H         1 <0>         0.1236
     66 H24         1.2783   -5.4985    1.2325 H         1 <0>         0.0817
     67 H25         0.2644   -4.5570    2.3523 H         1 <0>         0.0824
     68 H26         3.9471   -7.0754    4.8426 H         1 <0>         0.4166
     69 H27         3.4392   -6.2223    2.4509 H         1 <0>         0.1659
     70 H28         1.8362   -7.1038    6.2859 H         1 <0>         0.1995
     71 H29         0.0503   -7.9908    0.4552 H         1 <0>         0.4090
     72 H30         1.7456   -9.9193    1.2736 H         1 <0>         0.1148
     73 H31        -1.0902  -10.9833    1.6412 H         1 <0>         0.0815
     74 H32        -0.5163  -10.1145    0.1976 H         1 <0>         0.0909
     75 H33         1.0961  -11.1345   -1.3071 H         1 <0>         0.1159
     76 H34         2.0174  -13.2343   -2.2045 H         1 <0>         0.1166
     77 H35         1.7821  -15.3268   -0.9280 H         1 <0>         0.1154
     78 H36         0.6264  -15.3193    1.2463 H         1 <0>         0.1142
     79 H37        -0.2875  -13.2179    2.1475 H         1 <0>         0.1089
     80 H38         0.7037  -10.7105    3.8844 H         1 <0>         0.4128
     81 H39         4.9946  -12.3298    4.1954 H         1 <0>         0.0554
     82 H40         5.4007  -13.8153    3.3027 H         1 <0>         0.0680
     83 H41         4.5210  -12.4997    2.4880 H         1 <0>         0.0880
     84 H42         2.5694  -14.8386    5.4922 H         1 <0>         0.0660
     85 H43         4.2610  -15.1811    5.0571 H         1 <0>         0.0795
     86 H44         3.8549  -13.6957    5.9497 H         1 <0>         0.0647
     87 H45         2.7165  -14.1040    1.8458 H         1 <0>         0.1026
     88 H46         3.5962  -15.4195    2.6605 H         1 <0>         0.0648
     89 H47         1.9046  -15.0770    3.0956 H         1 <0>         0.0570
     90 H48        -2.8578   -2.5847    2.0396 H         1 <0>         0.3710
     91 H49        -1.3985   -2.0711   -2.1462 H         1 <0>         0.3751
@<TRIPOS>BOND
     1    1    2 1
     2    1   45 1
     3    1   46 1
     4    1   47 1
     5    2    3 1
     6    2    4 1
     7    2   48 1
     8    3   49 1
     9    3   50 1
    10    3   51 1
    11    4    5 1
    12    4   52 1
    13    4   53 1
    14    5    6 1
    15    5    7 1
    16    5   44 1
    17    7    8 1
    18    7    9 1
    19    7   43 1
    20    9   10 1
    21    9   14 1
    22    9   54 1
    23   10   11 1
    24   10   55 1
    25   10   56 1
    26   11   12 1
    27   11   13 1
    28   11   57 1
    29   12   58 1
    30   12   59 1
    31   12   60 1
    32   13   61 1
    33   13   62 1
    34   13   63 1
    35   14   15 am
    36   14   64 1
    37   15   16 2
    38   15   17 1
    39   17   18 1
    40   17   24 1
    41   17   65 1
    42   18   66 1
    43   18   67 1
    44   18   19 1
    45   19   20 2
    46   19   23 1
    47   20   21 1
    48   20   69 1
    49   21   22 1
    50   21   68 1
    51   22   70 1
    52   22   23 2
    53   24   25 am
    54   24   71 1
    55   25   26 2
    56   25   27 1
    57   27   28 1
    58   27   35 1
    59   27   72 1
    60   28   29 1
    61   28   73 1
    62   28   74 1
    63   29   34 ar
    64   29   30 ar
    65   30   31 ar
    66   30   75 1
    67   31   32 ar
    68   31   76 1
    69   32   33 ar
    70   32   77 1
    71   33   34 ar
    72   33   78 1
    73   34   79 1
    74   35   36 am
    75   35   80 1
    76   36   37 2
    77   36   38 1
    78   38   39 1
    79   39   40 1
    80   39   41 1
    81   39   42 1
    82   40   81 1
    83   40   82 1
    84   40   83 1
    85   41   84 1
    86   41   85 1
    87   41   86 1
    88   42   87 1
    89   42   88 1
    90   42   89 1
    91   43   90 1
    92   44   91 1
@<TRIPOS>MOLECULE
CHEMBL308103__2
   91    92     0     0     0
SMALL
USER_CHARGES

@<TRIPOS>ATOM
      1 C1          0.6514   -0.2560    1.3577 C.3       1 <0>        -0.1494
      2 C2          0.0379   -0.0876   -0.0338 C.3       1 <0>        -0.0943
      3 C3          0.8806   -0.8497   -1.0584 C.3       1 <0>        -0.1488
      4 C4         -1.3882   -0.6419   -0.0329 C.3       1 <0>        -0.1451
      5 C5         -2.0504   -0.3483   -1.3805 C.3       1 <0>         0.0772
      6 H1         -1.4402   -0.7627   -2.1831 H         1 <0>         0.0996
      7 C6         -3.4406   -0.9861   -1.4154 C.3       1 <0>         0.0668
      8 H2         -4.0508   -0.5716   -0.6129 H         1 <0>         0.1147
      9 C7         -4.1028   -0.6924   -2.7631 C.3       1 <0>         0.1167
     10 C8         -5.4931   -1.3302   -2.7980 C.3       1 <0>        -0.1217
     11 C9         -6.2040   -0.9331   -4.0933 C.3       1 <0>        -0.0913
     12 C10        -7.5421   -1.6692   -4.1869 C.3       1 <0>        -0.1491
     13 C11        -6.4511    0.5768   -4.0971 C.3       1 <0>        -0.1400
     14 N1         -3.2828   -1.2495   -3.8417 N.am      1 <0>        -0.7181
     15 C12        -3.3513   -0.7235   -5.0808 C.2       1 <0>         0.5156
     16 O1         -4.0919    0.2109   -5.3027 O.2       1 <0>        -0.5066
     17 C13        -2.5078   -1.2966   -6.1903 C.3       1 <0>         0.1368
     18 C14        -1.0282   -1.1776   -5.8196 C.3       1 <0>        -0.0490
     19 C15        -0.1906   -1.8596   -6.8705 C.2       1 <0>        -0.0189
     20 C16         0.2411   -1.3213   -8.0269 C.2       1 <0>        -0.0013
     21 N2          0.9542   -2.2527   -8.6775 N.2       1 <0>        -0.4826
     22 C17         0.9807   -3.3477   -7.9680 C.2       1 <0>         0.1918
     23 N3          0.2826   -3.1434   -6.8302 N.pl3     1 <0>        -0.5603
     24 N4         -2.7619   -0.5566   -7.4289 N.am      1 <0>        -0.7076
     25 C18        -2.5487   -1.1462   -8.6220 C.2       1 <0>         0.5194
     26 O2         -2.1464   -2.2894   -8.6702 O.2       1 <0>        -0.5082
     27 C19        -2.8101   -0.3851   -9.8961 C.3       1 <0>         0.1610
     28 C20        -4.2811    0.0327   -9.9479 C.3       1 <0>        -0.0918
     29 C21        -4.5153    0.8975  -11.1597 C.ar      1 <0>        -0.0654
     30 C22        -4.3631    2.2685  -11.0702 C.ar      1 <0>        -0.1029
     31 C23        -4.5779    3.0617  -12.1817 C.ar      1 <0>        -0.1111
     32 C24        -4.9445    2.4839  -13.3828 C.ar      1 <0>        -0.1201
     33 C25        -5.0958    1.1128  -13.4725 C.ar      1 <0>        -0.1095
     34 C26        -4.8768    0.3192  -12.3621 C.ar      1 <0>        -0.1077
     35 N5         -2.5042   -1.2389  -11.0465 N.am      1 <0>        -0.6933
     36 C27        -2.1709   -0.6833  -12.2283 C.2       1 <0>         0.6571
     37 O3         -2.1241    0.5258  -12.3396 O.2       1 <0>        -0.5484
     38 O4         -1.8897   -1.4680  -13.2856 O.3       1 <0>        -0.3580
     39 C28        -1.5441   -0.8116  -14.5070 C.3       1 <0>         0.1387
     40 C29        -0.2968    0.0472  -14.2892 C.3       1 <0>        -0.1847
     41 C30        -1.2604   -1.8586  -15.5861 C.3       1 <0>        -0.1414
     42 C31        -2.7051    0.0792  -14.9535 C.3       1 <0>        -0.1917
     43 O5         -3.3209   -2.3994   -1.2414 O.3       1 <0>        -0.5422
     44 O6         -2.1701    1.0650   -1.5546 O.3       1 <0>        -0.5480
     45 H3          1.6949    0.0579    1.3351 H         1 <0>         0.0554
     46 H4          0.1030    0.3569    2.0731 H         1 <0>         0.0536
     47 H5          0.5932   -1.3027    1.6562 H         1 <0>         0.0537
     48 H6          0.0163    0.9702   -0.2958 H         1 <0>         0.0766
     49 H7          0.9021   -1.9076   -0.7964 H         1 <0>         0.0529
     50 H8          0.4435   -0.7298   -2.0497 H         1 <0>         0.0524
     51 H9          1.8966   -0.4548   -1.0590 H         1 <0>         0.0553
     52 H10        -1.3592   -1.7191    0.1307 H         1 <0>         0.0795
     53 H11        -1.9615   -0.1687    0.7644 H         1 <0>         0.0666
     54 H12        -4.1942    0.3856   -2.8958 H         1 <0>         0.1120
     55 H13        -5.3963   -2.4151   -2.7545 H         1 <0>         0.0688
     56 H14        -6.0738   -0.9827   -1.9435 H         1 <0>         0.0714
     57 H15        -5.5812   -1.2016   -4.9466 H         1 <0>         0.0717
     58 H16        -8.1649   -1.4008   -3.3336 H         1 <0>         0.0521
     59 H17        -8.0485   -1.3863   -5.1097 H         1 <0>         0.0528
     60 H18        -7.3660   -2.7449   -4.1842 H         1 <0>         0.0490
     61 H19        -5.4979    1.1011   -4.0304 H         1 <0>         0.0725
     62 H20        -6.9576    0.8597   -5.0199 H         1 <0>         0.0479
     63 H21        -7.0740    0.8452   -3.2438 H         1 <0>         0.0403
     64 H22        -2.6905   -1.9969   -3.6642 H         1 <0>         0.3919
     65 H23        -2.7627   -2.3464   -6.3354 H         1 <0>         0.1136
     66 H24        -0.7517   -0.1248   -5.7615 H         1 <0>         0.0978
     67 H25        -0.8563   -1.6522   -4.8535 H         1 <0>         0.0799
     68 H26         0.1415   -3.7868   -6.1182 H         1 <0>         0.4141
     69 H27         0.0472   -0.3159   -8.3704 H         1 <0>         0.1522
     70 H28         1.4810   -4.2643   -8.2436 H         1 <0>         0.2022
     71 H29        -3.0837    0.3576   -7.3904 H         1 <0>         0.4128
     72 H30        -2.1790    0.5031   -9.9247 H         1 <0>         0.1185
     73 H31        -4.9093   -0.8560  -10.0088 H         1 <0>         0.0808
     74 H32        -4.5314    0.5935   -9.0474 H         1 <0>         0.0903
     75 H33        -4.0767    2.7199  -10.1318 H         1 <0>         0.1160
     76 H34        -4.4597    4.1329  -12.1117 H         1 <0>         0.1167
     77 H35        -5.1130    3.1037  -14.2511 H         1 <0>         0.1155
     78 H36        -5.3826    0.6614  -14.4108 H         1 <0>         0.1143
     79 H37        -4.9914   -0.7524  -12.4330 H         1 <0>         0.1089
     80 H38        -2.5415   -2.2041  -10.9577 H         1 <0>         0.4126
     81 H39         0.5304   -0.5874  -13.9712 H         1 <0>         0.0583
     82 H40        -0.0332    0.5479  -15.2209 H         1 <0>         0.0668
     83 H41        -0.4989    0.7931  -13.5205 H         1 <0>         0.0884
     84 H42        -2.1490   -2.4704  -15.7412 H         1 <0>         0.0648
     85 H43        -0.9968   -1.3579  -16.5177 H         1 <0>         0.0789
     86 H44        -0.4333   -2.4932  -15.2680 H         1 <0>         0.0658
     87 H45        -2.9073    0.8250  -14.1847 H         1 <0>         0.1023
     88 H46        -2.4416    0.5799  -15.8851 H         1 <0>         0.0644
     89 H47        -3.5938   -0.5327  -15.1086 H         1 <0>         0.0558
     90 H48        -2.7896   -2.8357   -1.9214 H         1 <0>         0.3686
     91 H49        -2.7014    1.5014   -0.8745 H         1 <0>         0.3763
@<TRIPOS>BOND
     1    1    2 1
     2    1   45 1
     3    1   46 1
     4    1   47 1
     5    2    3 1
     6    2    4 1
     7    2   48 1
     8    3   49 1
     9    3   50 1
    10    3   51 1
    11    4    5 1
    12    4   52 1
    13    4   53 1
    14    5    6 1
    15    5    7 1
    16    5   44 1
    17    7    8 1
    18    7    9 1
    19    7   43 1
    20    9   10 1
    21    9   14 1
    22    9   54 1
    23   10   11 1
    24   10   55 1
    25   10   56 1
    26   11   12 1
    27   11   13 1
    28   11   57 1
    29   12   58 1
    30   12   59 1
    31   12   60 1
    32   13   61 1
    33   13   62 1
    34   13   63 1
    35   14   15 am
    36   14   64 1
    37   15   16 2
    38   15   17 1
    39   17   18 1
    40   17   24 1
    41   17   65 1
    42   18   66 1
    43   18   67 1
    44   18   19 1
    45   19   20 2
    46   19   23 1
    47   20   21 1
    48   20   69 1
    49   21   22 2
    50   22   70 1
    51   22   23 1
    52   23   68 1
    53   24   25 am
    54   24   71 1
    55   25   26 2
    56   25   27 1
    57   27   28 1
    58   27   35 1
    59   27   72 1
    60   28   29 1
    61   28   73 1
    62   28   74 1
    63   29   34 ar
    64   29   30 ar
    65   30   31 ar
    66   30   75 1
    67   31   32 ar
    68   31   76 1
    69   32   33 ar
    70   32   77 1
    71   33   34 ar
    72   33   78 1
    73   34   79 1
    74   35   36 am
    75   35   80 1
    76   36   37 2
    77   36   38 1
    78   38   39 1
    79   39   40 1
    80   39   41 1
    81   39   42 1
    82   40   81 1
    83   40   82 1
    84   40   83 1
    85   41   84 1
    86   41   85 1
    87   41   86 1
    88   42   87 1
    89   42   88 1
    90   42   89 1
    91   43   90 1
    92   44   91 1
@<TRIPOS>MOLECULE
CHEMBL308103__3
   92    93     0     0     0
SMALL
USER_CHARGES

@<TRIPOS>ATOM
      1 C1          0.6514   -0.2560    1.3577 C.3       1 <0>        -0.1517
      2 C2          0.0379   -0.0876   -0.0338 C.3       1 <0>        -0.0942
      3 C3          0.8806   -0.8497   -1.0584 C.3       1 <0>        -0.1468
      4 C4         -1.3882   -0.6419   -0.0329 C.3       1 <0>        -0.1477
      5 C5         -2.0504   -0.3483   -1.3805 C.3       1 <0>         0.0801
      6 H1         -1.4402   -0.7627   -2.1831 H         1 <0>         0.0951
      7 C6         -3.4406   -0.9861   -1.4154 C.3       1 <0>         0.0648
      8 H2         -4.0508   -0.5716   -0.6129 H         1 <0>         0.1187
      9 C7         -4.1028   -0.6924   -2.7631 C.3       1 <0>         0.1166
     10 C8         -5.4931   -1.3302   -2.7980 C.3       1 <0>        -0.1242
     11 C9         -6.2040   -0.9331   -4.0933 C.3       1 <0>        -0.0889
     12 C10        -7.5421   -1.6692   -4.1869 C.3       1 <0>        -0.1515
     13 C11        -6.4511    0.5768   -4.0971 C.3       1 <0>        -0.1424
     14 N1         -3.2828   -1.2495   -3.8417 N.am      1 <0>        -0.7142
     15 C12        -3.3513   -0.7235   -5.0808 C.2       1 <0>         0.5115
     16 O1         -4.0919    0.2109   -5.3027 O.2       1 <0>        -0.4932
     17 C13        -2.5078   -1.2966   -6.1903 C.3       1 <0>         0.1296
     18 C14        -1.0282   -1.1776   -5.8196 C.3       1 <0>        -0.0717
     19 C15        -0.1906   -1.8596   -6.8705 C.2       1 <0>         0.0450
     20 C16         0.2343   -1.3093   -8.0238 C.2       1 <0>         0.0384
     21 N2          0.9598   -2.2690   -8.6769 N.pl3     1 <0>        -0.5015
     22 C17         0.9529   -3.3730   -7.8993 C.cat     1 <0>         0.3144
     23 N3          0.2673   -3.1192   -6.8183 N.pl3     1 <0>        -0.4676
     24 N4         -2.7619   -0.5566   -7.4289 N.am      1 <0>        -0.7043
     25 C18        -2.5487   -1.1462   -8.6220 C.2       1 <0>         0.5227
     26 O2         -2.1464   -2.2894   -8.6702 O.2       1 <0>        -0.5381
     27 C19        -2.8101   -0.3851   -9.8961 C.3       1 <0>         0.1521
     28 C20        -1.9242    0.8616   -9.9363 C.3       1 <0>        -0.0877
     29 C21        -2.2722    1.6864  -11.1486 C.ar      1 <0>        -0.0789
     30 C22        -1.6218    1.4616  -12.3475 C.ar      1 <0>        -0.1086
     31 C23        -1.9410    2.2181  -13.4595 C.ar      1 <0>        -0.1084
     32 C24        -2.9111    3.1990  -13.3728 C.ar      1 <0>        -0.1123
     33 C25        -3.5622    3.4232  -12.1742 C.ar      1 <0>        -0.1077
     34 C26        -3.2460    2.6638  -11.0633 C.ar      1 <0>        -0.1007
     35 N5         -2.5042   -1.2389  -11.0465 N.am      1 <0>        -0.7007
     36 C27        -3.1015   -1.0107  -12.2329 C.2       1 <0>         0.6528
     37 O3         -3.8939   -0.0967  -12.3483 O.2       1 <0>        -0.5360
     38 O4         -2.8203   -1.7954  -13.2902 O.3       1 <0>        -0.3587
     39 C28        -3.4900   -1.4960  -14.5166 C.3       1 <0>         0.1392
     40 C29        -3.1383   -0.0732  -14.9556 C.3       1 <0>        -0.1929
     41 C30        -3.0464   -2.4867  -15.5949 C.3       1 <0>        -0.1424
     42 C31        -5.0022   -1.6077  -14.3124 C.3       1 <0>        -0.1868
     43 O5         -3.3209   -2.3994   -1.2414 O.3       1 <0>        -0.5379
     44 O6         -2.1701    1.0650   -1.5546 O.3       1 <0>        -0.5509
     45 H3          1.6949    0.0579    1.3351 H         1 <0>         0.0565
     46 H4          0.1030    0.3569    2.0731 H         1 <0>         0.0561
     47 H5          0.5932   -1.3027    1.6562 H         1 <0>         0.0547
     48 H6          0.0163    0.9702   -0.2958 H         1 <0>         0.0771
     49 H7          0.9021   -1.9076   -0.7964 H         1 <0>         0.0532
     50 H8          0.4435   -0.7298   -2.0497 H         1 <0>         0.0473
     51 H9          1.8966   -0.4548   -1.0590 H         1 <0>         0.0557
     52 H10        -1.3592   -1.7191    0.1307 H         1 <0>         0.0803
     53 H11        -1.9615   -0.1687    0.7644 H         1 <0>         0.0696
     54 H12        -4.1942    0.3856   -2.8958 H         1 <0>         0.1152
     55 H13        -5.3963   -2.4151   -2.7545 H         1 <0>         0.0703
     56 H14        -6.0738   -0.9827   -1.9435 H         1 <0>         0.0761
     57 H15        -5.5812   -1.2016   -4.9466 H         1 <0>         0.0665
     58 H16        -8.1649   -1.4008   -3.3336 H         1 <0>         0.0554
     59 H17        -8.0485   -1.3863   -5.1097 H         1 <0>         0.0539
     60 H18        -7.3660   -2.7449   -4.1842 H         1 <0>         0.0496
     61 H19        -5.4979    1.1011   -4.0304 H         1 <0>         0.0707
     62 H20        -6.9576    0.8597   -5.0199 H         1 <0>         0.0491
     63 H21        -7.0740    0.8452   -3.2438 H         1 <0>         0.0445
     64 H22        -2.6905   -1.9969   -3.6642 H         1 <0>         0.3908
     65 H23        -2.7627   -2.3464   -6.3354 H         1 <0>         0.1225
     66 H24        -0.7517   -0.1248   -5.7615 H         1 <0>         0.1253
     67 H25        -0.8563   -1.6522   -4.8535 H         1 <0>         0.1089
     68 H26         1.3971   -2.1738   -9.5374 H         1 <0>         0.4659
     69 H27         0.0398   -0.3042   -8.3676 H         1 <0>         0.2142
     70 H28         1.4380   -4.3096   -8.1316 H         1 <0>         0.2648
     71 H29        -3.0837    0.3576   -7.3904 H         1 <0>         0.4225
     72 H30        -3.8581   -0.0875   -9.9330 H         1 <0>         0.1285
     73 H31        -2.0879    1.4529   -9.0354 H         1 <0>         0.0921
     74 H32        -0.8775    0.5620   -9.9890 H         1 <0>         0.0734
     75 H33        -0.8639    0.6951  -12.4152 H         1 <0>         0.1065
     76 H34        -1.4323    2.0429  -14.3960 H         1 <0>         0.1172
     77 H35        -3.1601    3.7906  -14.2415 H         1 <0>         0.1200
     78 H36        -4.3199    4.1899  -12.1064 H         1 <0>         0.1210
     79 H37        -3.7573    2.8365  -10.1278 H         1 <0>         0.1176
     80 H38        -1.8717   -1.9686  -10.9544 H         1 <0>         0.4070
     81 H39        -2.0610    0.0064  -15.1011 H         1 <0>         0.0571
     82 H40        -3.6491    0.1552  -15.8910 H         1 <0>         0.0693
     83 H41        -3.4543    0.6326  -14.1874 H         1 <0>         0.1010
     84 H42        -3.2970   -3.5004  -15.2821 H         1 <0>         0.0660
     85 H43        -3.5572   -2.2584  -16.5303 H         1 <0>         0.0834
     86 H44        -1.9691   -2.4072  -15.7404 H         1 <0>         0.0657
     87 H45        -5.3182   -0.9019  -13.5442 H         1 <0>         0.0874
     88 H46        -5.5130   -1.3794  -15.2478 H         1 <0>         0.0724
     89 H47        -5.2527   -2.6214  -13.9997 H         1 <0>         0.0580
     90 H48        -2.7896   -2.8357   -1.9214 H         1 <0>         0.3647
     91 H49        -2.7014    1.5014   -0.8745 H         1 <0>         0.3811
     92 H50         0.1117   -3.7436   -6.0925 H         1 <0>         0.4621
@<TRIPOS>BOND
     1    1    2 1
     2    1   45 1
     3    1   46 1
     4    1   47 1
     5    2    3 1
     6    2    4 1
     7    2   48 1
     8    3   49 1
     9    3   50 1
    10    3   51 1
    11    4    5 1
    12    4   52 1
    13    4   53 1
    14    5    6 1
    15    5    7 1
    16    5   44 1
    17    7    8 1
    18    7    9 1
    19    7   43 1
    20    9   10 1
    21    9   14 1
    22    9   54 1
    23   10   11 1
    24   10   55 1
    25   10   56 1
    26   11   12 1
    27   11   13 1
    28   11   57 1
    29   12   58 1
    30   12   59 1
    31   12   60 1
    32   13   61 1
    33   13   62 1
    34   13   63 1
    35   14   15 am
    36   14   64 1
    37   15   16 2
    38   15   17 1
    39   17   18 1
    40   17   24 1
    41   17   65 1
    42   18   66 1
    43   18   67 1
    44   18   19 1
    45   19   20 2
    46   19   23 1
    47   20   21 1
    48   20   69 1
    49   21   22 1
    50   21   68 1
    51   22   70 1
    52   22   23 2
    53   23   92 1
    54   24   25 am
    55   24   71 1
    56   25   26 2
    57   25   27 1
    58   27   28 1
    59   27   35 1
    60   27   72 1
    61   28   29 1
    62   28   73 1
    63   28   74 1
    64   29   34 ar
    65   29   30 ar
    66   30   31 ar
    67   30   75 1
    68   31   32 ar
    69   31   76 1
    70   32   33 ar
    71   32   77 1
    72   33   34 ar
    73   33   78 1
    74   34   79 1
    75   35   36 am
    76   35   80 1
    77   36   37 2
    78   36   38 1
    79   38   39 1
    80   39   40 1
    81   39   41 1
    82   39   42 1
    83   40   81 1
    84   40   82 1
    85   40   83 1
    86   41   84 1
    87   41   85 1
    88   41   86 1
    89   42   87 1
    90   42   88 1
    91   42   89 1
    92   43   90 1
    93   44   91 1
@<TRIPOS>MOLECULE
CHEMBL308103__4
   91    92     0     0     0
SMALL
USER_CHARGES

@<TRIPOS>ATOM
      1 C1          0.6514   -0.2560    1.3577 C.3       1 <0>        -0.1495
      2 C2          0.0379   -0.0876   -0.0338 C.3       1 <0>        -0.0942
      3 C3          0.8806   -0.8497   -1.0584 C.3       1 <0>        -0.1488
      4 C4         -1.3882   -0.6419   -0.0329 C.3       1 <0>        -0.1451
      5 C5         -2.0504   -0.3483   -1.3805 C.3       1 <0>         0.0773
      6 H1         -1.4402   -0.7627   -2.1831 H         1 <0>         0.0996
      7 C6         -3.4406   -0.9861   -1.4154 C.3       1 <0>         0.0669
      8 H2         -4.0508   -0.5716   -0.6129 H         1 <0>         0.1147
      9 C7         -4.1028   -0.6924   -2.7631 C.3       1 <0>         0.1167
     10 C8         -5.4931   -1.3302   -2.7980 C.3       1 <0>        -0.1217
     11 C9         -6.2040   -0.9331   -4.0933 C.3       1 <0>        -0.0915
     12 C10        -7.5421   -1.6692   -4.1869 C.3       1 <0>        -0.1492
     13 C11        -6.4511    0.5768   -4.0971 C.3       1 <0>        -0.1400
     14 N1         -3.2828   -1.2495   -3.8417 N.am      1 <0>        -0.7181
     15 C12        -3.3513   -0.7235   -5.0808 C.2       1 <0>         0.5153
     16 O1         -4.0919    0.2109   -5.3027 O.2       1 <0>        -0.5064
     17 C13        -2.5078   -1.2966   -6.1903 C.3       1 <0>         0.1365
     18 C14        -1.0282   -1.1776   -5.8196 C.3       1 <0>        -0.0493
     19 C15        -0.1906   -1.8596   -6.8705 C.2       1 <0>        -0.0176
     20 C16         0.2411   -1.3213   -8.0269 C.2       1 <0>        -0.0061
     21 N2          0.9542   -2.2527   -8.6775 N.2       1 <0>        -0.4842
     22 C17         0.9807   -3.3477   -7.9680 C.2       1 <0>         0.1926
     23 N3          0.2826   -3.1434   -6.8302 N.pl3     1 <0>        -0.5599
     24 N4         -2.7619   -0.5566   -7.4289 N.am      1 <0>        -0.7076
     25 C18        -2.5487   -1.1462   -8.6220 C.2       1 <0>         0.5192
     26 O2         -2.1464   -2.2894   -8.6702 O.2       1 <0>        -0.5083
     27 C19        -2.8101   -0.3851   -9.8961 C.3       1 <0>         0.1603
     28 C20        -1.9242    0.8616   -9.9363 C.3       1 <0>        -0.0927
     29 C21        -2.2722    1.6864  -11.1486 C.ar      1 <0>        -0.0657
     30 C22        -1.6218    1.4616  -12.3475 C.ar      1 <0>        -0.1059
     31 C23        -1.9410    2.2181  -13.4595 C.ar      1 <0>        -0.1097
     32 C24        -2.9111    3.1990  -13.3728 C.ar      1 <0>        -0.1201
     33 C25        -3.5622    3.4232  -12.1742 C.ar      1 <0>        -0.1122
     34 C26        -3.2460    2.6638  -11.0633 C.ar      1 <0>        -0.1037
     35 N5         -2.5042   -1.2389  -11.0465 N.am      1 <0>        -0.6940
     36 C27        -3.1015   -1.0107  -12.2329 C.2       1 <0>         0.6544
     37 O3         -3.8939   -0.0967  -12.3483 O.2       1 <0>        -0.5486
     38 O4         -2.8203   -1.7954  -13.2902 O.3       1 <0>        -0.3577
     39 C28        -3.4900   -1.4960  -14.5166 C.3       1 <0>         0.1381
     40 C29        -3.1383   -0.0732  -14.9556 C.3       1 <0>        -0.1920
     41 C30        -3.0464   -2.4867  -15.5949 C.3       1 <0>        -0.1415
     42 C31        -5.0022   -1.6077  -14.3124 C.3       1 <0>        -0.1851
     43 O5         -3.3209   -2.3994   -1.2414 O.3       1 <0>        -0.5422
     44 O6         -2.1701    1.0650   -1.5546 O.3       1 <0>        -0.5480
     45 H3          1.6949    0.0579    1.3351 H         1 <0>         0.0555
     46 H4          0.1030    0.3569    2.0731 H         1 <0>         0.0536
     47 H5          0.5932   -1.3027    1.6562 H         1 <0>         0.0537
     48 H6          0.0163    0.9702   -0.2958 H         1 <0>         0.0766
     49 H7          0.9021   -1.9076   -0.7964 H         1 <0>         0.0529
     50 H8          0.4435   -0.7298   -2.0497 H         1 <0>         0.0524
     51 H9          1.8966   -0.4548   -1.0590 H         1 <0>         0.0553
     52 H10        -1.3592   -1.7191    0.1307 H         1 <0>         0.0795
     53 H11        -1.9615   -0.1687    0.7644 H         1 <0>         0.0666
     54 H12        -4.1942    0.3856   -2.8958 H         1 <0>         0.1120
     55 H13        -5.3963   -2.4151   -2.7545 H         1 <0>         0.0688
     56 H14        -6.0738   -0.9827   -1.9435 H         1 <0>         0.0716
     57 H15        -5.5812   -1.2016   -4.9466 H         1 <0>         0.0713
     58 H16        -8.1649   -1.4008   -3.3336 H         1 <0>         0.0523
     59 H17        -8.0485   -1.3863   -5.1097 H         1 <0>         0.0528
     60 H18        -7.3660   -2.7449   -4.1842 H         1 <0>         0.0490
     61 H19        -5.4979    1.1011   -4.0304 H         1 <0>         0.0725
     62 H20        -6.9576    0.8597   -5.0199 H         1 <0>         0.0479
     63 H21        -7.0740    0.8452   -3.2438 H         1 <0>         0.0405
     64 H22        -2.6905   -1.9969   -3.6642 H         1 <0>         0.3919
     65 H23        -2.7627   -2.3464   -6.3354 H         1 <0>         0.1133
     66 H24        -0.7517   -0.1248   -5.7615 H         1 <0>         0.0984
     67 H25        -0.8563   -1.6522   -4.8535 H         1 <0>         0.0800
     68 H26         0.1415   -3.7868   -6.1182 H         1 <0>         0.4145
     69 H27         0.0472   -0.3159   -8.3704 H         1 <0>         0.1551
     70 H28         1.4810   -4.2643   -8.2436 H         1 <0>         0.2026
     71 H29        -3.0837    0.3576   -7.3904 H         1 <0>         0.4129
     72 H30        -3.8581   -0.0875   -9.9330 H         1 <0>         0.1180
     73 H31        -2.0879    1.4529   -9.0354 H         1 <0>         0.0877
     74 H32        -0.8775    0.5620   -9.9890 H         1 <0>         0.0862
     75 H33        -0.8639    0.6951  -12.4152 H         1 <0>         0.1108
     76 H34        -1.4323    2.0429  -14.3960 H         1 <0>         0.1145
     77 H35        -3.1601    3.7906  -14.2415 H         1 <0>         0.1151
     78 H36        -4.3199    4.1899  -12.1064 H         1 <0>         0.1163
     79 H37        -3.7573    2.8365  -10.1278 H         1 <0>         0.1157
     80 H38        -1.8717   -1.9686  -10.9544 H         1 <0>         0.4154
     81 H39        -2.0610    0.0064  -15.1011 H         1 <0>         0.0571
     82 H40        -3.6491    0.1552  -15.8910 H         1 <0>         0.0644
     83 H41        -3.4543    0.6326  -14.1874 H         1 <0>         0.1026
     84 H42        -3.2970   -3.5004  -15.2821 H         1 <0>         0.0650
     85 H43        -3.5572   -2.2584  -16.5303 H         1 <0>         0.0791
     86 H44        -1.9691   -2.4072  -15.7404 H         1 <0>         0.0661
     87 H45        -5.3182   -0.9019  -13.5442 H         1 <0>         0.0883
     88 H46        -5.5130   -1.3794  -15.2478 H         1 <0>         0.0677
     89 H47        -5.2527   -2.6214  -13.9997 H         1 <0>         0.0565
     90 H48        -2.7896   -2.8357   -1.9214 H         1 <0>         0.3685
     91 H49        -2.7014    1.5014   -0.8745 H         1 <0>         0.3763
@<TRIPOS>BOND
     1    1    2 1
     2    1   45 1
     3    1   46 1
     4    1   47 1
     5    2    3 1
     6    2    4 1
     7    2   48 1
     8    3   49 1
     9    3   50 1
    10    3   51 1
    11    4    5 1
    12    4   52 1
    13    4   53 1
    14    5    6 1
    15    5    7 1
    16    5   44 1
    17    7    8 1
    18    7    9 1
    19    7   43 1
    20    9   10 1
    21    9   14 1
    22    9   54 1
    23   10   11 1
    24   10   55 1
    25   10   56 1
    26   11   12 1
    27   11   13 1
    28   11   57 1
    29   12   58 1
    30   12   59 1
    31   12   60 1
    32   13   61 1
    33   13   62 1
    34   13   63 1
    35   14   15 am
    36   14   64 1
    37   15   16 2
    38   15   17 1
    39   17   18 1
    40   17   24 1
    41   17   65 1
    42   18   66 1
    43   18   67 1
    44   18   19 1
    45   19   20 2
    46   19   23 1
    47   20   21 1
    48   20   69 1
    49   21   22 2
    50   22   70 1
    51   22   23 1
    52   23   68 1
    53   24   25 am
    54   24   71 1
    55   25   26 2
    56   25   27 1
    57   27   28 1
    58   27   35 1
    59   27   72 1
    60   28   29 1
    61   28   73 1
    62   28   74 1
    63   29   34 ar
    64   29   30 ar
    65   30   31 ar
    66   30   75 1
    67   31   32 ar
    68   31   76 1
    69   32   33 ar
    70   32   77 1
    71   33   34 ar
    72   33   78 1
    73   34   79 1
    74   35   36 am
    75   35   80 1
    76   36   37 2
    77   36   38 1
    78   38   39 1
    79   39   40 1
    80   39   41 1
    81   39   42 1
    82   40   81 1
    83   40   82 1
    84   40   83 1
    85   41   84 1
    86   41   85 1
    87   41   86 1
    88   42   87 1
    89   42   88 1
    90   42   89 1
    91   43   90 1
    92   44   91 1
@<TRIPOS>MOLECULE
CHEMBL308103__5
   91    92     0     0     0
SMALL
USER_CHARGES

@<TRIPOS>ATOM
      1 C1         -0.0187    1.5258    0.0104 C.3       1 <0>        -0.1492
      2 C2          0.0021   -0.0041    0.0020 C.3       1 <0>        -0.0938
      3 C3          0.7421   -0.5109    1.2415 C.3       1 <0>        -0.1493
      4 C4         -1.4333   -0.5336    0.0129 C.3       1 <0>        -0.1452
      5 C5         -1.4157   -2.0577   -0.1212 C.3       1 <0>         0.0765
      6 H1         -0.7891   -2.4841    0.6622 H         1 <0>         0.1019
      7 C6         -2.8406   -2.5981    0.0146 C.3       1 <0>         0.0674
      8 H2         -3.4671   -2.1717   -0.7688 H         1 <0>         0.1132
      9 C7         -2.8229   -4.1221   -0.1195 C.3       1 <0>         0.1169
     10 C8         -4.2478   -4.6626    0.0163 C.3       1 <0>        -0.1216
     11 C9         -4.2480   -6.1707   -0.2413 C.3       1 <0>        -0.0917
     12 C10        -5.6479   -6.7319    0.0160 C.3       1 <0>        -0.1488
     13 C11        -3.8496   -6.4400   -1.6938 C.3       1 <0>        -0.1392
     14 N1         -1.9808   -4.6953    0.9334 N.am      1 <0>        -0.7177
     15 C12        -1.4030   -5.8995    0.7534 C.2       1 <0>         0.5156
     16 O1         -1.5802   -6.5087   -0.2802 O.2       1 <0>        -0.5144
     17 C13        -0.5368   -6.4891    1.8365 C.3       1 <0>         0.1391
     18 C14         0.6403   -5.5522    2.1147 C.3       1 <0>        -0.0374
     19 C15         1.4376   -6.0794    3.2798 C.2       1 <0>         0.0081
     20 C16         2.7578   -6.3451    3.2798 C.2       1 <0>        -0.0573
     21 N2          3.0700   -6.8013    4.5320 N.pl3     1 <0>        -0.5710
     22 C17         1.9289   -6.7984    5.2542 C.2       1 <0>         0.1935
     23 N3          0.9577   -6.3608    4.5003 N.2       1 <0>        -0.4521
     24 N4         -0.0307   -7.7932    1.4014 N.am      1 <0>        -0.7060
     25 C18         0.3222   -8.7183    2.3157 C.2       1 <0>         0.5100
     26 O2          0.2209   -8.4712    3.4987 O.2       1 <0>        -0.4953
     27 C19         0.8428  -10.0598    1.8681 C.3       1 <0>         0.1575
     28 C20         2.1100   -9.8626    1.0336 C.3       1 <0>        -0.0868
     29 C21         2.5614  -11.1912    0.4840 C.ar      1 <0>        -0.0660
     30 C22         3.4343  -11.9792    1.2106 C.ar      1 <0>        -0.1080
     31 C23         3.8483  -13.1979    0.7064 C.ar      1 <0>        -0.1098
     32 C24         3.3892  -13.6288   -0.5242 C.ar      1 <0>        -0.1203
     33 C25         2.5156  -12.8411   -1.2504 C.ar      1 <0>        -0.1107
     34 C26         2.0982  -11.6244   -0.7443 C.ar      1 <0>        -0.1032
     35 N5          1.1538  -10.8794    3.0419 N.am      1 <0>        -0.6947
     36 C27         1.1449  -12.2238    2.9466 C.2       1 <0>         0.6537
     37 O3          0.8790  -12.7560    1.8871 O.2       1 <0>        -0.5468
     38 O4          1.4306  -12.9770    4.0253 O.3       1 <0>        -0.3593
     39 C28         1.4026  -14.3952    3.8522 C.3       1 <0>         0.1382
     40 C29         2.4235  -14.7992    2.7866 C.3       1 <0>        -0.1918
     41 C30         1.7506  -15.0777    5.1766 C.3       1 <0>        -0.1413
     42 C31         0.0037  -14.8272    3.4080 C.3       1 <0>        -0.1855
     43 O5         -3.3665   -2.2385    1.2937 O.3       1 <0>        -0.5434
     44 O6         -0.8897   -2.4172   -1.4003 O.3       1 <0>        -0.5485
     45 H3          1.0039    1.9031    0.0027 H         1 <0>         0.0546
     46 H4         -0.5459    1.8868   -0.8726 H         1 <0>         0.0531
     47 H5         -0.5289    1.8773    0.9072 H         1 <0>         0.0539
     48 H6          0.5123   -0.3556   -0.8948 H         1 <0>         0.0756
     49 H7          0.2319   -0.1594    2.1383 H         1 <0>         0.0538
     50 H8          0.7568   -1.6008    1.2356 H         1 <0>         0.0541
     51 H9          1.7647   -0.1336    1.2338 H         1 <0>         0.0542
     52 H10        -1.9156   -0.2570    0.9504 H         1 <0>         0.0803
     53 H11        -1.9862   -0.1019   -0.8214 H         1 <0>         0.0657
     54 H12        -2.4217   -4.3964   -1.0952 H         1 <0>         0.1104
     55 H13        -4.6166   -4.4659    1.0230 H         1 <0>         0.0694
     56 H14        -4.8941   -4.1698   -0.7101 H         1 <0>         0.0702
     57 H15        -3.5345   -6.6535    0.4265 H         1 <0>         0.0727
     58 H16        -6.3613   -6.2492   -0.6519 H         1 <0>         0.0514
     59 H17        -5.6480   -7.8064   -0.1675 H         1 <0>         0.0519
     60 H18        -5.9316   -6.5401    1.0508 H         1 <0>         0.0496
     61 H19        -2.8523   -6.0402   -1.8772 H         1 <0>         0.0727
     62 H20        -3.8498   -7.5144   -1.8774 H         1 <0>         0.0467
     63 H21        -4.5631   -5.9573   -2.3617 H         1 <0>         0.0394
     64 H22        -1.8392   -4.2080    1.7601 H         1 <0>         0.3947
     65 H23        -1.1255   -6.6127    2.7456 H         1 <0>         0.1232
     66 H24         1.2783   -5.4985    1.2325 H         1 <0>         0.0822
     67 H25         0.2644   -4.5570    2.3523 H         1 <0>         0.0824
     68 H26         3.9471   -7.0754    4.8426 H         1 <0>         0.4169
     69 H27         3.4392   -6.2223    2.4509 H         1 <0>         0.1666
     70 H28         1.8362   -7.1038    6.2859 H         1 <0>         0.1999
     71 H29         0.0503   -7.9908    0.4552 H         1 <0>         0.4090
     72 H30         0.0853  -10.5609    1.2654 H         1 <0>         0.1170
     73 H31         1.8999   -9.1809    0.2095 H         1 <0>         0.0880
     74 H32         2.8964   -9.4428    1.6609 H         1 <0>         0.0787
     75 H33         3.7930  -11.6426    2.1721 H         1 <0>         0.1072
     76 H34         4.5308  -13.8133    1.2738 H         1 <0>         0.1140
     77 H35         3.7132  -14.5806   -0.9184 H         1 <0>         0.1157
     78 H36         2.1572  -13.1776   -2.2120 H         1 <0>         0.1172
     79 H37         1.4128  -11.0107   -1.3100 H         1 <0>         0.1166
     80 H38         1.3660  -10.4545    3.8876 H         1 <0>         0.4116
     81 H39         3.4201  -14.4914    3.1031 H         1 <0>         0.0560
     82 H40         2.4022  -15.8809    2.6546 H         1 <0>         0.0650
     83 H41         2.1756  -14.3130    1.8431 H         1 <0>         0.1025
     84 H42         1.0233  -14.7899    5.9358 H         1 <0>         0.0656
     85 H43         1.7292  -16.1594    5.0446 H         1 <0>         0.0796
     86 H44         2.7472  -14.7699    5.4931 H         1 <0>         0.0650
     87 H45        -0.2442  -14.3411    2.4645 H         1 <0>         0.0884
     88 H46        -0.0177  -15.9090    3.2760 H         1 <0>         0.0681
     89 H47        -0.7236  -14.5395    4.1672 H         1 <0>         0.0574
     90 H48        -2.8578   -2.5847    2.0396 H         1 <0>         0.3710
     91 H49        -1.3985   -2.0711   -2.1462 H         1 <0>         0.3752
@<TRIPOS>BOND
     1    1    2 1
     2    1   45 1
     3    1   46 1
     4    1   47 1
     5    2    3 1
     6    2    4 1
     7    2   48 1
     8    3   49 1
     9    3   50 1
    10    3   51 1
    11    4    5 1
    12    4   52 1
    13    4   53 1
    14    5    6 1
    15    5    7 1
    16    5   44 1
    17    7    8 1
    18    7    9 1
    19    7   43 1
    20    9   10 1
    21    9   14 1
    22    9   54 1
    23   10   11 1
    24   10   55 1
    25   10   56 1
    26   11   12 1
    27   11   13 1
    28   11   57 1
    29   12   58 1
    30   12   59 1
    31   12   60 1
    32   13   61 1
    33   13   62 1
    34   13   63 1
    35   14   15 am
    36   14   64 1
    37   15   16 2
    38   15   17 1
    39   17   18 1
    40   17   24 1
    41   17   65 1
    42   18   66 1
    43   18   67 1
    44   18   19 1
    45   19   20 2
    46   19   23 1
    47   20   21 1
    48   20   69 1
    49   21   22 1
    50   21   68 1
    51   22   70 1
    52   22   23 2
    53   24   25 am
    54   24   71 1
    55   25   26 2
    56   25   27 1
    57   27   28 1
    58   27   35 1
    59   27   72 1
    60   28   29 1
    61   28   73 1
    62   28   74 1
    63   29   34 ar
    64   29   30 ar
    65   30   31 ar
    66   30   75 1
    67   31   32 ar
    68   31   76 1
    69   32   33 ar
    70   32   77 1
    71   33   34 ar
    72   33   78 1
    73   34   79 1
    74   35   36 am
    75   35   80 1
    76   36   37 2
    77   36   38 1
    78   38   39 1
    79   39   40 1
    80   39   41 1
    81   39   42 1
    82   40   81 1
    83   40   82 1
    84   40   83 1
    85   41   84 1
    86   41   85 1
    87   41   86 1
    88   42   87 1
    89   42   88 1
    90   42   89 1
    91   43   90 1
    92   44   91 1
@<TRIPOS>MOLECULE
CHEMBL308103__6
   92    93     0     0     0
SMALL
USER_CHARGES

@<TRIPOS>ATOM
      1 C1          0.6514   -0.2560    1.3577 C.3       1 <0>        -0.1508
      2 C2          0.0379   -0.0876   -0.0338 C.3       1 <0>        -0.0949
      3 C3          0.8806   -0.8498   -1.0584 C.3       1 <0>        -0.1476
      4 C4         -1.3882   -0.6419   -0.0329 C.3       1 <0>        -0.1461
      5 C5         -2.0504   -0.3483   -1.3805 C.3       1 <0>         0.0779
      6 H1         -1.4402   -0.7627   -2.1831 H         1 <0>         0.0973
      7 C6         -3.4406   -0.9861   -1.4154 C.3       1 <0>         0.0655
      8 H2         -4.0508   -0.5716   -0.6129 H         1 <0>         0.1182
      9 C7         -4.1028   -0.6924   -2.7631 C.3       1 <0>         0.1158
     10 C8         -5.4931   -1.3302   -2.7980 C.3       1 <0>        -0.1233
     11 C9         -6.2040   -0.9331   -4.0933 C.3       1 <0>        -0.0874
     12 C10        -7.5421   -1.6692   -4.1869 C.3       1 <0>        -0.1515
     13 C11        -6.4511    0.5768   -4.0971 C.3       1 <0>        -0.1444
     14 N1         -3.2828   -1.2495   -3.8417 N.am      1 <0>        -0.7132
     15 C12        -3.3513   -0.7235   -5.0808 C.2       1 <0>         0.5117
     16 O1         -4.0919    0.2109   -5.3027 O.2       1 <0>        -0.4960
     17 C13        -2.5078   -1.2966   -6.1903 C.3       1 <0>         0.1277
     18 C14        -2.8656   -2.7701   -6.3940 C.3       1 <0>        -0.0716
     19 C15        -1.9392   -3.3752   -7.4171 C.2       1 <0>         0.0395
     20 C16        -0.7173   -3.8865   -7.1740 C.2       1 <0>         0.0546
     21 N2         -0.2263   -4.3265   -8.3736 N.pl3     1 <0>        -0.4991
     22 C17        -1.1660   -4.0687   -9.3086 C.cat     1 <0>         0.3078
     23 N3         -2.1897   -3.5043   -8.7285 N.pl3     1 <0>        -0.4745
     24 N4         -2.7619   -0.5566   -7.4289 N.am      1 <0>        -0.7066
     25 C18        -1.8232   -0.5174   -8.3952 C.2       1 <0>         0.5164
     26 O2         -0.7680   -1.0946   -8.2393 O.2       1 <0>        -0.5326
     27 C19        -2.0846    0.2438   -9.6693 C.3       1 <0>         0.1511
     28 C20        -3.3122   -0.3415  -10.3702 C.3       1 <0>        -0.0853
     29 C21        -3.6471    0.4947  -11.5784 C.ar      1 <0>        -0.0803
     30 C22        -4.5084    1.5692  -11.4581 C.ar      1 <0>        -0.1005
     31 C23        -4.8156    2.3362  -12.5664 C.ar      1 <0>        -0.1071
     32 C24        -4.2610    2.0290  -13.7948 C.ar      1 <0>        -0.1113
     33 C25        -3.3990    0.9551  -13.9149 C.ar      1 <0>        -0.1082
     34 C26        -3.0885    0.1907  -12.8058 C.ar      1 <0>        -0.1085
     35 N5         -0.9201    0.1341  -10.5513 N.am      1 <0>        -0.7010
     36 C27        -0.6841    1.0846  -11.4772 C.2       1 <0>         0.6531
     37 O3         -1.4373    2.0325  -11.5804 O.2       1 <0>        -0.5361
     38 O4          0.3861    0.9838  -12.2879 O.3       1 <0>        -0.3581
     39 C28         0.5749    2.0272  -13.2459 C.3       1 <0>         0.1391
     40 C29         0.7340    3.3641  -12.5192 C.3       1 <0>        -0.1870
     41 C30         1.8321    1.7417  -14.0698 C.3       1 <0>        -0.1424
     42 C31        -0.6394    2.0928  -14.1744 C.3       1 <0>        -0.1926
     43 O5         -3.3209   -2.3994   -1.2414 O.3       1 <0>        -0.5383
     44 O6         -2.1701    1.0650   -1.5546 O.3       1 <0>        -0.5503
     45 H3          1.6949    0.0579    1.3351 H         1 <0>         0.0566
     46 H4          0.1030    0.3568    2.0731 H         1 <0>         0.0552
     47 H5          0.5932   -1.3027    1.6562 H         1 <0>         0.0545
     48 H6          0.0164    0.9702   -0.2958 H         1 <0>         0.0765
     49 H7          0.9021   -1.9076   -0.7964 H         1 <0>         0.0535
     50 H8          0.4435   -0.7298   -2.0497 H         1 <0>         0.0493
     51 H9          1.8966   -0.4549   -1.0590 H         1 <0>         0.0560
     52 H10        -1.3592   -1.7191    0.1307 H         1 <0>         0.0804
     53 H11        -1.9614   -0.1686    0.7644 H         1 <0>         0.0686
     54 H12        -4.1942    0.3856   -2.8958 H         1 <0>         0.1139
     55 H13        -5.3963   -2.4151   -2.7545 H         1 <0>         0.0709
     56 H14        -6.0738   -0.9827   -1.9435 H         1 <0>         0.0761
     57 H15        -5.5812   -1.2016   -4.9466 H         1 <0>         0.0659
     58 H16        -8.1649   -1.4008   -3.3336 H         1 <0>         0.0556
     59 H17        -8.0485   -1.3863   -5.1097 H         1 <0>         0.0533
     60 H18        -7.3660   -2.7449   -4.1842 H         1 <0>         0.0494
     61 H19        -5.4979    1.1011   -4.0304 H         1 <0>         0.0715
     62 H20        -6.9576    0.8597   -5.0199 H         1 <0>         0.0488
     63 H21        -7.0740    0.8452   -3.2438 H         1 <0>         0.0448
     64 H22        -2.6905   -1.9969   -3.6642 H         1 <0>         0.3927
     65 H23        -1.4537   -1.2118   -5.9262 H         1 <0>         0.1282
     66 H24        -2.7613   -3.3033   -5.4490 H         1 <0>         0.1257
     67 H25        -3.8948   -2.8491   -6.7440 H         1 <0>         0.1086
     68 H26         0.6356   -4.7453   -8.5239 H         1 <0>         0.4669
     69 H27        -0.2201   -3.9388   -6.2167 H         1 <0>         0.2227
     70 H28        -1.0853   -4.2958  -10.3614 H         1 <0>         0.2621
     71 H29        -3.6059   -0.0950   -7.5536 H         1 <0>         0.4213
     72 H30        -2.2656    1.2928   -9.4352 H         1 <0>         0.1288
     73 H31        -3.0990   -1.3635  -10.6834 H         1 <0>         0.0688
     74 H32        -4.1579   -0.3412   -9.6825 H         1 <0>         0.0901
     75 H33        -4.9417    1.8092  -10.4984 H         1 <0>         0.1172
     76 H34        -5.4890    3.1753  -12.4726 H         1 <0>         0.1213
     77 H35        -4.5015    2.6279  -14.6608 H         1 <0>         0.1205
     78 H36        -2.9660    0.7149  -14.8747 H         1 <0>         0.1177
     79 H37        -2.4121   -0.6461  -12.8988 H         1 <0>         0.1069
     80 H38        -0.3188   -0.6226  -10.4690 H         1 <0>         0.4074
     81 H39         1.5991    3.3174  -11.8578 H         1 <0>         0.0583
     82 H40         0.8780    4.1600  -13.2500 H         1 <0>         0.0726
     83 H41        -0.1616    3.5675  -11.9323 H         1 <0>         0.0871
     84 H42         1.7187    0.7892  -14.5876 H         1 <0>         0.0659
     85 H43         1.9760    2.5375  -14.8006 H         1 <0>         0.0836
     86 H44         2.6971    1.6949  -13.4084 H         1 <0>         0.0662
     87 H45        -1.5351    2.2961  -13.5874 H         1 <0>         0.1004
     88 H46        -0.4954    2.8886  -14.9052 H         1 <0>         0.0695
     89 H47        -0.7528    1.1403  -14.6921 H         1 <0>         0.0571
     90 H48        -2.7896   -2.8357   -1.9214 H         1 <0>         0.3652
     91 H49        -2.7014    1.5014   -0.8745 H         1 <0>         0.3795
     92 H50        -3.0026   -3.2210   -9.1754 H         1 <0>         0.4578
@<TRIPOS>BOND
     1    1    2 1
     2    1   45 1
     3    1   46 1
     4    1   47 1
     5    2    3 1
     6    2    4 1
     7    2   48 1
     8    3   49 1
     9    3   50 1
    10    3   51 1
    11    4    5 1
    12    4   52 1
    13    4   53 1
    14    5    6 1
    15    5    7 1
    16    5   44 1
    17    7    8 1
    18    7    9 1
    19    7   43 1
    20    9   10 1
    21    9   14 1
    22    9   54 1
    23   10   11 1
    24   10   55 1
    25   10   56 1
    26   11   12 1
    27   11   13 1
    28   11   57 1
    29   12   58 1
    30   12   59 1
    31   12   60 1
    32   13   61 1
    33   13   62 1
    34   13   63 1
    35   14   15 am
    36   14   64 1
    37   15   16 2
    38   15   17 1
    39   17   18 1
    40   17   24 1
    41   17   65 1
    42   18   66 1
    43   18   67 1
    44   18   19 1
    45   19   20 2
    46   19   23 1
    47   20   21 1
    48   20   69 1
    49   21   22 1
    50   21   68 1
    51   22   70 1
    52   22   23 2
    53   23   92 1
    54   24   25 am
    55   24   71 1
    56   25   26 2
    57   25   27 1
    58   27   28 1
    59   27   35 1
    60   27   72 1
    61   28   29 1
    62   28   73 1
    63   28   74 1
    64   29   34 ar
    65   29   30 ar
    66   30   31 ar
    67   30   75 1
    68   31   32 ar
    69   31   76 1
    70   32   33 ar
    71   32   77 1
    72   33   34 ar
    73   33   78 1
    74   34   79 1
    75   35   36 am
    76   35   80 1
    77   36   37 2
    78   36   38 1
    79   38   39 1
    80   39   40 1
    81   39   41 1
    82   39   42 1
    83   40   81 1
    84   40   82 1
    85   40   83 1
    86   41   84 1
    87   41   85 1
    88   41   86 1
    89   42   87 1
    90   42   88 1
    91   42   89 1
    92   43   90 1
    93   44   91 1
@<TRIPOS>MOLECULE
CHEMBL308103__7
   91    92     0     0     0
SMALL
USER_CHARGES

@<TRIPOS>ATOM
      1 C1          0.6514   -0.2560    1.3577 C.3       1 <0>        -0.1490
      2 C2          0.0379   -0.0876   -0.0338 C.3       1 <0>        -0.0946
      3 C3          0.8806   -0.8498   -1.0584 C.3       1 <0>        -0.1496
      4 C4         -1.3882   -0.6419   -0.0329 C.3       1 <0>        -0.1444
      5 C5         -2.0504   -0.3483   -1.3805 C.3       1 <0>         0.0758
      6 H1         -1.4402   -0.7627   -2.1831 H         1 <0>         0.1011
      7 C6         -3.4406   -0.9861   -1.4154 C.3       1 <0>         0.0675
      8 H2         -4.0508   -0.5716   -0.6129 H         1 <0>         0.1142
      9 C7         -4.1028   -0.6924   -2.7631 C.3       1 <0>         0.1163
     10 C8         -5.4931   -1.3302   -2.7980 C.3       1 <0>        -0.1213
     11 C9         -6.2040   -0.9331   -4.0933 C.3       1 <0>        -0.0905
     12 C10        -7.5421   -1.6692   -4.1869 C.3       1 <0>        -0.1493
     13 C11        -6.4511    0.5768   -4.0971 C.3       1 <0>        -0.1412
     14 N1         -3.2828   -1.2495   -3.8417 N.am      1 <0>        -0.7168
     15 C12        -3.3513   -0.7235   -5.0808 C.2       1 <0>         0.5159
     16 O1         -4.0919    0.2109   -5.3027 O.2       1 <0>        -0.5103
     17 C13        -2.5078   -1.2966   -6.1903 C.3       1 <0>         0.1338
     18 C14        -2.8656   -2.7701   -6.3940 C.3       1 <0>        -0.0494
     19 C15        -1.9392   -3.3752   -7.4171 C.2       1 <0>        -0.0173
     20 C16        -0.7161   -3.8900   -7.1877 C.2       1 <0>         0.0000
     21 N2         -0.2232   -4.3252   -8.3567 N.2       1 <0>        -0.4840
     22 C17        -1.0943   -4.0997   -9.3018 C.2       1 <0>         0.1913
     23 N3         -2.1818   -3.5127   -8.7572 N.pl3     1 <0>        -0.5637
     24 N4         -2.7619   -0.5566   -7.4289 N.am      1 <0>        -0.7090
     25 C18        -1.8232   -0.5174   -8.3952 C.2       1 <0>         0.5094
     26 O2         -0.7680   -1.0946   -8.2393 O.2       1 <0>        -0.4994
     27 C19        -2.0846    0.2438   -9.6693 C.3       1 <0>         0.1572
     28 C20        -3.3122   -0.3415  -10.3702 C.3       1 <0>        -0.0883
     29 C21        -3.6471    0.4947  -11.5784 C.ar      1 <0>        -0.0687
     30 C22        -4.5084    1.5692  -11.4581 C.ar      1 <0>        -0.1025
     31 C23        -4.8156    2.3362  -12.5664 C.ar      1 <0>        -0.1104
     32 C24        -4.2610    2.0290  -13.7948 C.ar      1 <0>        -0.1182
     33 C25        -3.3990    0.9551  -13.9149 C.ar      1 <0>        -0.1091
     34 C26        -3.0885    0.1907  -12.8058 C.ar      1 <0>        -0.1072
     35 N5         -0.9201    0.1341  -10.5513 N.am      1 <0>        -0.6962
     36 C27        -0.6841    1.0846  -11.4772 C.2       1 <0>         0.6546
     37 O3         -1.4373    2.0325  -11.5804 O.2       1 <0>        -0.5467
     38 O4          0.3861    0.9838  -12.2879 O.3       1 <0>        -0.3573
     39 C28         0.5749    2.0272  -13.2459 C.3       1 <0>         0.1381
     40 C29         0.7340    3.3641  -12.5192 C.3       1 <0>        -0.1856
     41 C30         1.8321    1.7417  -14.0698 C.3       1 <0>        -0.1417
     42 C31        -0.6394    2.0928  -14.1744 C.3       1 <0>        -0.1916
     43 O5         -3.3209   -2.3994   -1.2414 O.3       1 <0>        -0.5423
     44 O6         -2.1701    1.0650   -1.5546 O.3       1 <0>        -0.5485
     45 H3          1.6949    0.0579    1.3351 H         1 <0>         0.0553
     46 H4          0.1030    0.3568    2.0731 H         1 <0>         0.0529
     47 H5          0.5932   -1.3027    1.6562 H         1 <0>         0.0541
     48 H6          0.0164    0.9702   -0.2958 H         1 <0>         0.0756
     49 H7          0.9021   -1.9076   -0.7964 H         1 <0>         0.0543
     50 H8          0.4435   -0.7298   -2.0497 H         1 <0>         0.0533
     51 H9          1.8966   -0.4549   -1.0590 H         1 <0>         0.0552
     52 H10        -1.3592   -1.7191    0.1307 H         1 <0>         0.0804
     53 H11        -1.9614   -0.1686    0.7644 H         1 <0>         0.0659
     54 H12        -4.1942    0.3856   -2.8958 H         1 <0>         0.1106
     55 H13        -5.3963   -2.4151   -2.7545 H         1 <0>         0.0702
     56 H14        -6.0738   -0.9827   -1.9435 H         1 <0>         0.0713
     57 H15        -5.5812   -1.2016   -4.9466 H         1 <0>         0.0714
     58 H16        -8.1649   -1.4008   -3.3336 H         1 <0>         0.0522
     59 H17        -8.0485   -1.3863   -5.1097 H         1 <0>         0.0521
     60 H18        -7.3660   -2.7449   -4.1842 H         1 <0>         0.0497
     61 H19        -5.4979    1.1011   -4.0304 H         1 <0>         0.0726
     62 H20        -6.9576    0.8597   -5.0199 H         1 <0>         0.0472
     63 H21        -7.0740    0.8452   -3.2438 H         1 <0>         0.0407
     64 H22        -2.6905   -1.9969   -3.6642 H         1 <0>         0.3944
     65 H23        -1.4537   -1.2118   -5.9262 H         1 <0>         0.1209
     66 H24        -2.7613   -3.3033   -5.4490 H         1 <0>         0.0991
     67 H25        -3.8948   -2.8491   -6.7440 H         1 <0>         0.0803
     68 H26        -2.9842   -3.2382   -9.2281 H         1 <0>         0.4105
     69 H27        -0.2193   -3.9430   -6.2302 H         1 <0>         0.1606
     70 H28        -0.9679   -4.3451  -10.3459 H         1 <0>         0.2004
     71 H29        -3.6059   -0.0950   -7.5536 H         1 <0>         0.4113
     72 H30        -2.2656    1.2928   -9.4352 H         1 <0>         0.1200
     73 H31        -3.0990   -1.3635  -10.6834 H         1 <0>         0.0758
     74 H32        -4.1579   -0.3412   -9.6825 H         1 <0>         0.0874
     75 H33        -4.9417    1.8092  -10.4984 H         1 <0>         0.1160
     76 H34        -5.4890    3.1753  -12.4726 H         1 <0>         0.1176
     77 H35        -4.5015    2.6279  -14.6608 H         1 <0>         0.1165
     78 H36        -2.9660    0.7149  -14.8747 H         1 <0>         0.1153
     79 H37        -2.4121   -0.6461  -12.8988 H         1 <0>         0.1091
     80 H38        -0.3188   -0.6226  -10.4690 H         1 <0>         0.4139
     81 H39         1.5991    3.3174  -11.8578 H         1 <0>         0.0576
     82 H40         0.8780    4.1600  -13.2500 H         1 <0>         0.0685
     83 H41        -0.1616    3.5675  -11.9323 H         1 <0>         0.0879
     84 H42         1.7187    0.7892  -14.5876 H         1 <0>         0.0659
     85 H43         1.9760    2.5375  -14.8006 H         1 <0>         0.0798
     86 H44         2.6971    1.6949  -13.4084 H         1 <0>         0.0660
     87 H45        -1.5351    2.2961  -13.5874 H         1 <0>         0.1017
     88 H46        -0.4954    2.8886  -14.9052 H         1 <0>         0.0654
     89 H47        -0.7528    1.1403  -14.6921 H         1 <0>         0.0566
     90 H48        -2.7896   -2.8357   -1.9214 H         1 <0>         0.3700
     91 H49        -2.7014    1.5014   -0.8745 H         1 <0>         0.3754
@<TRIPOS>BOND
     1    1    2 1
     2    1   45 1
     3    1   46 1
     4    1   47 1
     5    2    3 1
     6    2    4 1
     7    2   48 1
     8    3   49 1
     9    3   50 1
    10    3   51 1
    11    4    5 1
    12    4   52 1
    13    4   53 1
    14    5    6 1
    15    5    7 1
    16    5   44 1
    17    7    8 1
    18    7    9 1
    19    7   43 1
    20    9   10 1
    21    9   14 1
    22    9   54 1
    23   10   11 1
    24   10   55 1
    25   10   56 1
    26   11   12 1
    27   11   13 1
    28   11   57 1
    29   12   58 1
    30   12   59 1
    31   12   60 1
    32   13   61 1
    33   13   62 1
    34   13   63 1
    35   14   15 am
    36   14   64 1
    37   15   16 2
    38   15   17 1
    39   17   18 1
    40   17   24 1
    41   17   65 1
    42   18   66 1
    43   18   67 1
    44   18   19 1
    45   19   20 2
    46   19   23 1
    47   20   21 1
    48   20   69 1
    49   21   22 2
    50   22   70 1
    51   22   23 1
    52   23   68 1
    53   24   25 am
    54   24   71 1
    55   25   26 2
    56   25   27 1
    57   27   28 1
    58   27   35 1
    59   27   72 1
    60   28   29 1
    61   28   73 1
    62   28   74 1
    63   29   34 ar
    64   29   30 ar
    65   30   31 ar
    66   30   75 1
    67   31   32 ar
    68   31   76 1
    69   32   33 ar
    70   32   77 1
    71   33   34 ar
    72   33   78 1
    73   34   79 1
    74   35   36 am
    75   35   80 1
    76   36   37 2
    77   36   38 1
    78   38   39 1
    79   39   40 1
    80   39   41 1
    81   39   42 1
    82   40   81 1
    83   40   82 1
    84   40   83 1
    85   41   84 1
    86   41   85 1
    87   41   86 1
    88   42   87 1
    89   42   88 1
    90   42   89 1
    91   43   90 1
    92   44   91 1
@<TRIPOS>MOLECULE
CHEMBL308103__8
   91    92     0     0     0
SMALL
USER_CHARGES

@<TRIPOS>ATOM
      1 C1         -0.0187    1.5258    0.0104 C.3       1 <0>        -0.1488
      2 C2          0.0021   -0.0041    0.0020 C.3       1 <0>        -0.0946
      3 C3          0.7421   -0.5109    1.2415 C.3       1 <0>        -0.1495
      4 C4         -1.4333   -0.5336    0.0129 C.3       1 <0>        -0.1445
      5 C5         -1.4157   -2.0577   -0.1212 C.3       1 <0>         0.0758
      6 H1         -0.7891   -2.4841    0.6622 H         1 <0>         0.1010
      7 C6         -2.8406   -2.5981    0.0146 C.3       1 <0>         0.0677
      8 H2         -3.4671   -2.1717   -0.7688 H         1 <0>         0.1135
      9 C7         -2.8229   -4.1221   -0.1195 C.3       1 <0>         0.1164
     10 C8         -4.2478   -4.6626    0.0163 C.3       1 <0>        -0.1205
     11 C9         -4.2480   -6.1707   -0.2413 C.3       1 <0>        -0.0913
     12 C10        -5.6479   -6.7319    0.0160 C.3       1 <0>        -0.1487
     13 C11        -3.8496   -6.4400   -1.6938 C.3       1 <0>        -0.1407
     14 N1         -1.9808   -4.6953    0.9334 N.am      1 <0>        -0.7192
     15 C12        -1.4030   -5.8995    0.7534 C.2       1 <0>         0.5146
     16 O1         -1.5802   -6.5087   -0.2802 O.2       1 <0>        -0.5110
     17 C13        -0.5368   -6.4891    1.8365 C.3       1 <0>         0.1433
     18 C14        -1.3631   -6.6626    3.1125 C.3       1 <0>        -0.0392
     19 C15        -0.4690   -7.1362    4.2294 C.2       1 <0>         0.0040
     20 C16        -0.3201   -6.5433    5.4293 C.2       1 <0>        -0.0519
     21 N2          0.5785   -7.2973    6.1348 N.pl3     1 <0>        -0.5699
     22 C17         0.9477   -8.3254    5.3408 C.2       1 <0>         0.1866
     23 N3          0.3134   -8.2253    4.2047 N.2       1 <0>        -0.4509
     24 N4         -0.0307   -7.7932    1.4014 N.am      1 <0>        -0.7074
     25 C18         1.1133   -8.2799    1.9217 C.2       1 <0>         0.5454
     26 O2          1.7239   -7.6382    2.7502 O.2       1 <0>        -0.5112
     27 C19         1.6339   -9.6214    1.4741 C.3       1 <0>         0.1648
     28 C20         0.5965  -10.7014    1.7874 C.3       1 <0>        -0.0830
     29 C21         1.0624  -12.0220    1.2306 C.ar      1 <0>        -0.0637
     30 C22         0.7216  -12.3875   -0.0583 C.ar      1 <0>        -0.1049
     31 C23         1.1489  -13.5988   -0.5691 C.ar      1 <0>        -0.1116
     32 C24         1.9173  -14.4445    0.2088 C.ar      1 <0>        -0.1227
     33 C25         2.2588  -14.0787    1.4974 C.ar      1 <0>        -0.1108
     34 C26         1.8351  -12.8654    2.0067 C.ar      1 <0>        -0.1078
     35 N5          2.8810   -9.9221    2.1816 N.am      1 <0>        -0.6914
     36 C27         3.7807  -10.7629    1.6338 C.2       1 <0>         0.6521
     37 O3          3.5575  -11.2715    0.5531 O.2       1 <0>        -0.5487
     38 O4          4.9268  -11.0393    2.2841 O.3       1 <0>        -0.3605
     39 C28         5.8347  -11.9387    1.6448 C.3       1 <0>         0.1385
     40 C29         6.2582  -11.3607    0.2930 C.3       1 <0>        -0.1854
     41 C30         7.0698  -12.1294    2.5274 C.3       1 <0>        -0.1411
     42 C31         5.1482  -13.2890    1.4296 C.3       1 <0>        -0.1915
     43 O5         -3.3665   -2.2385    1.2937 O.3       1 <0>        -0.5430
     44 O6         -0.8897   -2.4172   -1.4003 O.3       1 <0>        -0.5482
     45 H3          1.0039    1.9031    0.0027 H         1 <0>         0.0548
     46 H4         -0.5459    1.8868   -0.8726 H         1 <0>         0.0533
     47 H5         -0.5289    1.8773    0.9072 H         1 <0>         0.0537
     48 H6          0.5123   -0.3556   -0.8948 H         1 <0>         0.0757
     49 H7          0.2319   -0.1594    2.1383 H         1 <0>         0.0536
     50 H8          0.7568   -1.6008    1.2356 H         1 <0>         0.0536
     51 H9          1.7647   -0.1336    1.2338 H         1 <0>         0.0548
     52 H10        -1.9156   -0.2570    0.9504 H         1 <0>         0.0801
     53 H11        -1.9862   -0.1019   -0.8214 H         1 <0>         0.0660
     54 H12        -2.4217   -4.3964   -1.0952 H         1 <0>         0.1099
     55 H13        -4.6166   -4.4659    1.0230 H         1 <0>         0.0693
     56 H14        -4.8941   -4.1698   -0.7101 H         1 <0>         0.0698
     57 H15        -3.5345   -6.6535    0.4265 H         1 <0>         0.0737
     58 H16        -6.3613   -6.2492   -0.6519 H         1 <0>         0.0510
     59 H17        -5.6480   -7.8064   -0.1675 H         1 <0>         0.0525
     60 H18        -5.9316   -6.5401    1.0508 H         1 <0>         0.0494
     61 H19        -2.8523   -6.0402   -1.8772 H         1 <0>         0.0726
     62 H20        -3.8498   -7.5144   -1.8774 H         1 <0>         0.0477
     63 H21        -4.5631   -5.9573   -2.3617 H         1 <0>         0.0394
     64 H22        -1.8392   -4.2080    1.7601 H         1 <0>         0.3927
     65 H23         0.3018   -5.8216    2.0347 H         1 <0>         0.1110
     66 H24        -1.8127   -5.7082    3.3868 H         1 <0>         0.0825
     67 H25        -2.1488   -7.3979    2.9394 H         1 <0>         0.0827
     68 H26         0.8917   -7.1252    7.0366 H         1 <0>         0.4177
     69 H27        -0.8144   -5.6453    5.7695 H         1 <0>         0.1687
     70 H28         1.6486   -9.1037    5.6040 H         1 <0>         0.1971
     71 H29        -0.5190   -8.3064    0.7388 H         1 <0>         0.4072
     72 H30         1.8217   -9.5985    0.4006 H         1 <0>         0.1102
     73 H31         0.4742  -10.7853    2.8673 H         1 <0>         0.0883
     74 H32        -0.3571  -10.4318    1.3336 H         1 <0>         0.0837
     75 H33         0.1213  -11.7267   -0.6661 H         1 <0>         0.1153
     76 H34         0.8821  -13.8846   -1.5758 H         1 <0>         0.1155
     77 H35         2.2506  -15.3913   -0.1900 H         1 <0>         0.1141
     78 H36         2.8589  -14.7396    2.1053 H         1 <0>         0.1129
     79 H37         2.1050  -12.5780    3.0122 H         1 <0>         0.1085
     80 H38         3.0591   -9.5161    3.0444 H         1 <0>         0.4117
     81 H39         6.7472  -10.3987    0.4463 H         1 <0>         0.0565
     82 H40         6.9507  -12.0467   -0.1947 H         1 <0>         0.0672
     83 H41         5.3782  -11.2248   -0.3358 H         1 <0>         0.0888
     84 H42         6.7682  -12.5412    3.4904 H         1 <0>         0.0650
     85 H43         7.7624  -12.8155    2.0397 H         1 <0>         0.0788
     86 H44         7.5589  -11.1675    2.6807 H         1 <0>         0.0647
     87 H45         4.2683  -13.1531    0.8009 H         1 <0>         0.1031
     88 H46         5.8408  -13.9751    0.9420 H         1 <0>         0.0638
     89 H47         4.8465  -13.7008    2.3927 H         1 <0>         0.0562
     90 H48        -2.8578   -2.5847    2.0396 H         1 <0>         0.3695
     91 H49        -1.3985   -2.0711   -2.1462 H         1 <0>         0.3752
@<TRIPOS>BOND
     1    1    2 1
     2    1   45 1
     3    1   46 1
     4    1   47 1
     5    2    3 1
     6    2    4 1
     7    2   48 1
     8    3   49 1
     9    3   50 1
    10    3   51 1
    11    4    5 1
    12    4   52 1
    13    4   53 1
    14    5    6 1
    15    5    7 1
    16    5   44 1
    17    7    8 1
    18    7    9 1
    19    7   43 1
    20    9   10 1
    21    9   14 1
    22    9   54 1
    23   10   11 1
    24   10   55 1
    25   10   56 1
    26   11   12 1
    27   11   13 1
    28   11   57 1
    29   12   58 1
    30   12   59 1
    31   12   60 1
    32   13   61 1
    33   13   62 1
    34   13   63 1
    35   14   15 am
    36   14   64 1
    37   15   16 2
    38   15   17 1
    39   17   18 1
    40   17   24 1
    41   17   65 1
    42   18   66 1
    43   18   67 1
    44   18   19 1
    45   19   20 2
    46   19   23 1
    47   20   21 1
    48   20   69 1
    49   21   22 1
    50   21   68 1
    51   22   70 1
    52   22   23 2
    53   24   25 am
    54   24   71 1
    55   25   26 2
    56   25   27 1
    57   27   28 1
    58   27   35 1
    59   27   72 1
    60   28   29 1
    61   28   73 1
    62   28   74 1
    63   29   34 ar
    64   29   30 ar
    65   30   31 ar
    66   30   75 1
    67   31   32 ar
    68   31   76 1
    69   32   33 ar
    70   32   77 1
    71   33   34 ar
    72   33   78 1
    73   34   79 1
    74   35   36 am
    75   35   80 1
    76   36   37 2
    77   36   38 1
    78   38   39 1
    79   39   40 1
    80   39   41 1
    81   39   42 1
    82   40   81 1
    83   40   82 1
    84   40   83 1
    85   41   84 1
    86   41   85 1
    87   41   86 1
    88   42   87 1
    89   42   88 1
    90   42   89 1
    91   43   90 1
    92   44   91 1
@<TRIPOS>MOLECULE
CHEMBL308103__9
   92    93     0     0     0
SMALL
USER_CHARGES

@<TRIPOS>ATOM
      1 C1          0.6514   -0.2560    1.3577 C.3       1 <0>        -0.1509
      2 C2          0.0379   -0.0876   -0.0338 C.3       1 <0>        -0.0947
      3 C3          0.8806   -0.8498   -1.0584 C.3       1 <0>        -0.1475
      4 C4         -1.3882   -0.6419   -0.0329 C.3       1 <0>        -0.1463
      5 C5         -2.0504   -0.3483   -1.3805 C.3       1 <0>         0.0782
      6 H1         -1.4402   -0.7627   -2.1831 H         1 <0>         0.0974
      7 C6         -3.4406   -0.9861   -1.4154 C.3       1 <0>         0.0654
      8 H2         -4.0508   -0.5716   -0.6129 H         1 <0>         0.1181
      9 C7         -4.1028   -0.6924   -2.7631 C.3       1 <0>         0.1160
     10 C8         -5.4931   -1.3302   -2.7980 C.3       1 <0>        -0.1234
     11 C9         -6.2040   -0.9331   -4.0933 C.3       1 <0>        -0.0874
     12 C10        -7.5421   -1.6692   -4.1869 C.3       1 <0>        -0.1516
     13 C11        -6.4511    0.5768   -4.0971 C.3       1 <0>        -0.1442
     14 N1         -3.2828   -1.2495   -3.8417 N.am      1 <0>        -0.7132
     15 C12        -3.3513   -0.7235   -5.0808 C.2       1 <0>         0.5119
     16 O1         -4.0919    0.2109   -5.3027 O.2       1 <0>        -0.4961
     17 C13        -2.5078   -1.2966   -6.1903 C.3       1 <0>         0.1280
     18 C14        -2.8656   -2.7701   -6.3940 C.3       1 <0>        -0.0715
     19 C15        -1.9392   -3.3752   -7.4171 C.2       1 <0>         0.0385
     20 C16        -0.7173   -3.8865   -7.1740 C.2       1 <0>         0.0536
     21 N2         -0.2263   -4.3265   -8.3736 N.pl3     1 <0>        -0.5001
     22 C17        -1.1660   -4.0687   -9.3086 C.cat     1 <0>         0.3121
     23 N3         -2.1897   -3.5043   -8.7285 N.pl3     1 <0>        -0.4733
     24 N4         -2.7619   -0.5566   -7.4289 N.am      1 <0>        -0.7066
     25 C18        -1.8232   -0.5174   -8.3952 C.2       1 <0>         0.5151
     26 O2         -0.7680   -1.0946   -8.2393 O.2       1 <0>        -0.5328
     27 C19        -2.0846    0.2438   -9.6693 C.3       1 <0>         0.1558
     28 C20        -2.3386    1.7163   -9.3407 C.3       1 <0>        -0.0910
     29 C21        -2.7205    2.4531  -10.5986 C.ar      1 <0>        -0.0749
     30 C22        -1.7417    3.0312  -11.3851 C.ar      1 <0>        -0.1079
     31 C23        -2.0920    3.7070  -12.5390 C.ar      1 <0>        -0.1077
     32 C24        -3.4210    3.8043  -12.9066 C.ar      1 <0>        -0.1141
     33 C25        -4.3997    3.2254  -12.1205 C.ar      1 <0>        -0.1095
     34 C26        -4.0491    2.5459  -10.9689 C.ar      1 <0>        -0.1034
     35 N5         -0.9201    0.1341  -10.5513 N.am      1 <0>        -0.7028
     36 C27        -1.0686    0.2721  -11.8838 C.2       1 <0>         0.6514
     37 O3         -2.1683    0.4874  -12.3534 O.2       1 <0>        -0.5393
     38 O4          0.0017    0.1713  -12.6944 O.3       1 <0>        -0.3575
     39 C28        -0.2290    0.3282  -14.0959 C.3       1 <0>         0.1388
     40 C29        -0.8184    1.7145  -14.3636 C.3       1 <0>        -0.1948
     41 C30         1.0943    0.1823  -14.8500 C.3       1 <0>        -0.1431
     42 C31        -1.2097   -0.7441  -14.5746 C.3       1 <0>        -0.1838
     43 O5         -3.3209   -2.3994   -1.2414 O.3       1 <0>        -0.5384
     44 O6         -2.1701    1.0650   -1.5546 O.3       1 <0>        -0.5503
     45 H3          1.6949    0.0579    1.3351 H         1 <0>         0.0566
     46 H4          0.1030    0.3568    2.0731 H         1 <0>         0.0552
     47 H5          0.5932   -1.3027    1.6562 H         1 <0>         0.0545
     48 H6          0.0164    0.9702   -0.2958 H         1 <0>         0.0765
     49 H7          0.9021   -1.9076   -0.7964 H         1 <0>         0.0535
     50 H8          0.4435   -0.7298   -2.0497 H         1 <0>         0.0493
     51 H9          1.8966   -0.4549   -1.0590 H         1 <0>         0.0560
     52 H10        -1.3592   -1.7191    0.1307 H         1 <0>         0.0804
     53 H11        -1.9614   -0.1686    0.7644 H         1 <0>         0.0686
     54 H12        -4.1942    0.3856   -2.8958 H         1 <0>         0.1140
     55 H13        -5.3963   -2.4151   -2.7545 H         1 <0>         0.0708
     56 H14        -6.0738   -0.9827   -1.9435 H         1 <0>         0.0761
     57 H15        -5.5812   -1.2016   -4.9466 H         1 <0>         0.0658
     58 H16        -8.1649   -1.4008   -3.3336 H         1 <0>         0.0556
     59 H17        -8.0485   -1.3863   -5.1097 H         1 <0>         0.0533
     60 H18        -7.3660   -2.7449   -4.1842 H         1 <0>         0.0493
     61 H19        -5.4979    1.1011   -4.0304 H         1 <0>         0.0716
     62 H20        -6.9576    0.8597   -5.0199 H         1 <0>         0.0488
     63 H21        -7.0740    0.8452   -3.2438 H         1 <0>         0.0447
     64 H22        -2.6905   -1.9969   -3.6642 H         1 <0>         0.3926
     65 H23        -1.4537   -1.2118   -5.9262 H         1 <0>         0.1283
     66 H24        -2.7613   -3.3033   -5.4490 H         1 <0>         0.1253
     67 H25        -3.8948   -2.8491   -6.7440 H         1 <0>         0.1081
     68 H26         0.6356   -4.7453   -8.5239 H         1 <0>         0.4665
     69 H27        -0.2201   -3.9388   -6.2167 H         1 <0>         0.2225
     70 H28        -1.0853   -4.2958  -10.3614 H         1 <0>         0.2604
     71 H29        -3.6059   -0.0950   -7.5536 H         1 <0>         0.4213
     72 H30        -2.9592   -0.1732  -10.1686 H         1 <0>         0.1208
     73 H31        -3.1485    1.7922   -8.6151 H         1 <0>         0.0915
     74 H32        -1.4335    2.1566   -8.9223 H         1 <0>         0.0843
     75 H33        -0.7034    2.9552  -11.0980 H         1 <0>         0.1088
     76 H34        -1.3274    4.1593  -13.1532 H         1 <0>         0.1173
     77 H35        -3.6948    4.3330  -13.8077 H         1 <0>         0.1194
     78 H36        -5.4381    3.3018  -12.4075 H         1 <0>         0.1197
     79 H37        -4.8134    2.0905  -10.3567 H         1 <0>         0.1151
     80 H38        -0.0421   -0.0378  -10.1764 H         1 <0>         0.4127
     81 H39        -0.1197    2.4785  -14.0226 H         1 <0>         0.0591
     82 H40        -0.9943    1.8343  -15.4327 H         1 <0>         0.0692
     83 H41        -1.7611    1.8185  -13.8264 H         1 <0>         0.1014
     84 H42         1.5142   -0.8053  -14.6593 H         1 <0>         0.0647
     85 H43         0.9183    0.3021  -15.9190 H         1 <0>         0.0834
     86 H44         1.7930    0.9462  -14.5090 H         1 <0>         0.0678
     87 H45        -2.1524   -0.6401  -14.0374 H         1 <0>         0.0865
     88 H46        -1.3857   -0.6243  -15.6437 H         1 <0>         0.0724
     89 H47        -0.7898   -1.7317  -14.3839 H         1 <0>         0.0549
     90 H48        -2.7896   -2.8357   -1.9214 H         1 <0>         0.3653
     91 H49        -2.7014    1.5014   -0.8745 H         1 <0>         0.3795
     92 H50        -3.0026   -3.2210   -9.1754 H         1 <0>         0.4588
@<TRIPOS>BOND
     1    1    2 1
     2    1   45 1
     3    1   46 1
     4    1   47 1
     5    2    3 1
     6    2    4 1
     7    2   48 1
     8    3   49 1
     9    3   50 1
    10    3   51 1
    11    4    5 1
    12    4   52 1
    13    4   53 1
    14    5    6 1
    15    5    7 1
    16    5   44 1
    17    7    8 1
    18    7    9 1
    19    7   43 1
    20    9   10 1
    21    9   14 1
    22    9   54 1
    23   10   11 1
    24   10   55 1
    25   10   56 1
    26   11   12 1
    27   11   13 1
    28   11   57 1
    29   12   58 1
    30   12   59 1
    31   12   60 1
    32   13   61 1
    33   13   62 1
    34   13   63 1
    35   14   15 am
    36   14   64 1
    37   15   16 2
    38   15   17 1
    39   17   18 1
    40   17   24 1
    41   17   65 1
    42   18   66 1
    43   18   67 1
    44   18   19 1
    45   19   20 2
    46   19   23 1
    47   20   21 1
    48   20   69 1
    49   21   22 1
    50   21   68 1
    51   22   70 1
    52   22   23 2
    53   23   92 1
    54   24   25 am
    55   24   71 1
    56   25   26 2
    57   25   27 1
    58   27   28 1
    59   27   35 1
    60   27   72 1
    61   28   29 1
    62   28   73 1
    63   28   74 1
    64   29   34 ar
    65   29   30 ar
    66   30   31 ar
    67   30   75 1
    68   31   32 ar
    69   31   76 1
    70   32   33 ar
    71   32   77 1
    72   33   34 ar
    73   33   78 1
    74   34   79 1
    75   35   36 am
    76   35   80 1
    77   36   37 2
    78   36   38 1
    79   38   39 1
    80   39   40 1
    81   39   41 1
    82   39   42 1
    83   40   81 1
    84   40   82 1
    85   40   83 1
    86   41   84 1
    87   41   85 1
    88   41   86 1
    89   42   87 1
    90   42   88 1
    91   42   89 1
    92   43   90 1
    93   44   91 1
@<TRIPOS>MOLECULE
CHEMBL308103__10
   91    92     0     0     0
SMALL
USER_CHARGES

@<TRIPOS>ATOM
      1 C1          0.6514   -0.2560    1.3577 C.3       1 <0>        -0.1491
      2 C2          0.0379   -0.0876   -0.0338 C.3       1 <0>        -0.0945
      3 C3          0.8806   -0.8498   -1.0584 C.3       1 <0>        -0.1496
      4 C4         -1.3882   -0.6419   -0.0329 C.3       1 <0>        -0.1445
      5 C5         -2.0504   -0.3483   -1.3805 C.3       1 <0>         0.0760
      6 H1         -1.4402   -0.7627   -2.1831 H         1 <0>         0.1012
      7 C6         -3.4406   -0.9861   -1.4154 C.3       1 <0>         0.0674
      8 H2         -4.0508   -0.5716   -0.6129 H         1 <0>         0.1141
      9 C7         -4.1028   -0.6924   -2.7631 C.3       1 <0>         0.1165
     10 C8         -5.4931   -1.3302   -2.7980 C.3       1 <0>        -0.1215
     11 C9         -6.2040   -0.9331   -4.0933 C.3       1 <0>        -0.0906
     12 C10        -7.5421   -1.6692   -4.1869 C.3       1 <0>        -0.1494
     13 C11        -6.4511    0.5768   -4.0971 C.3       1 <0>        -0.1409
     14 N1         -3.2828   -1.2495   -3.8417 N.am      1 <0>        -0.7168
     15 C12        -3.3513   -0.7235   -5.0808 C.2       1 <0>         0.5162
     16 O1         -4.0919    0.2109   -5.3027 O.2       1 <0>        -0.5104
     17 C13        -2.5078   -1.2966   -6.1903 C.3       1 <0>         0.1341
     18 C14        -2.8656   -2.7701   -6.3940 C.3       1 <0>        -0.0493
     19 C15        -1.9392   -3.3752   -7.4171 C.2       1 <0>        -0.0190
     20 C16        -0.7161   -3.8900   -7.1877 C.2       1 <0>        -0.0004
     21 N2         -0.2232   -4.3252   -8.3567 N.2       1 <0>        -0.4853
     22 C17        -1.0943   -4.0997   -9.3018 C.2       1 <0>         0.1952
     23 N3         -2.1818   -3.5127   -8.7572 N.pl3     1 <0>        -0.5628
     24 N4         -2.7619   -0.5566   -7.4289 N.am      1 <0>        -0.7090
     25 C18        -1.8232   -0.5174   -8.3952 C.2       1 <0>         0.5090
     26 O2         -0.7680   -1.0946   -8.2393 O.2       1 <0>        -0.4995
     27 C19        -2.0846    0.2438   -9.6693 C.3       1 <0>         0.1598
     28 C20        -2.3386    1.7163   -9.3407 C.3       1 <0>        -0.0918
     29 C21        -2.7205    2.4531  -10.5986 C.ar      1 <0>        -0.0661
     30 C22        -1.7417    3.0312  -11.3851 C.ar      1 <0>        -0.1075
     31 C23        -2.0920    3.7070  -12.5390 C.ar      1 <0>        -0.1088
     32 C24        -3.4210    3.8043  -12.9066 C.ar      1 <0>        -0.1195
     33 C25        -4.3997    3.2254  -12.1205 C.ar      1 <0>        -0.1113
     34 C26        -4.0491    2.5459  -10.9689 C.ar      1 <0>        -0.1037
     35 N5         -0.9201    0.1341  -10.5513 N.am      1 <0>        -0.6961
     36 C27        -1.0686    0.2721  -11.8838 C.2       1 <0>         0.6549
     37 O3         -2.1683    0.4874  -12.3534 O.2       1 <0>        -0.5481
     38 O4          0.0017    0.1713  -12.6944 O.3       1 <0>        -0.3570
     39 C28        -0.2290    0.3282  -14.0959 C.3       1 <0>         0.1382
     40 C29        -0.8184    1.7145  -14.3636 C.3       1 <0>        -0.1924
     41 C30         1.0943    0.1823  -14.8500 C.3       1 <0>        -0.1420
     42 C31        -1.2097   -0.7441  -14.5746 C.3       1 <0>        -0.1844
     43 O5         -3.3209   -2.3994   -1.2414 O.3       1 <0>        -0.5424
     44 O6         -2.1701    1.0650   -1.5546 O.3       1 <0>        -0.5485
     45 H3          1.6949    0.0579    1.3351 H         1 <0>         0.0553
     46 H4          0.1030    0.3568    2.0731 H         1 <0>         0.0529
     47 H5          0.5932   -1.3027    1.6562 H         1 <0>         0.0541
     48 H6          0.0164    0.9702   -0.2958 H         1 <0>         0.0756
     49 H7          0.9021   -1.9076   -0.7964 H         1 <0>         0.0542
     50 H8          0.4435   -0.7298   -2.0497 H         1 <0>         0.0534
     51 H9          1.8966   -0.4549   -1.0590 H         1 <0>         0.0552
     52 H10        -1.3592   -1.7191    0.1307 H         1 <0>         0.0804
     53 H11        -1.9614   -0.1686    0.7644 H         1 <0>         0.0659
     54 H12        -4.1942    0.3856   -2.8958 H         1 <0>         0.1107
     55 H13        -5.3963   -2.4151   -2.7545 H         1 <0>         0.0701
     56 H14        -6.0738   -0.9827   -1.9435 H         1 <0>         0.0713
     57 H15        -5.5812   -1.2016   -4.9466 H         1 <0>         0.0713
     58 H16        -8.1649   -1.4008   -3.3336 H         1 <0>         0.0522
     59 H17        -8.0485   -1.3863   -5.1097 H         1 <0>         0.0520
     60 H18        -7.3660   -2.7449   -4.1842 H         1 <0>         0.0496
     61 H19        -5.4979    1.1011   -4.0304 H         1 <0>         0.0727
     62 H20        -6.9576    0.8597   -5.0199 H         1 <0>         0.0471
     63 H21        -7.0740    0.8452   -3.2438 H         1 <0>         0.0406
     64 H22        -2.6905   -1.9969   -3.6642 H         1 <0>         0.3944
     65 H23        -1.4537   -1.2118   -5.9262 H         1 <0>         0.1211
     66 H24        -2.7613   -3.3033   -5.4490 H         1 <0>         0.0989
     67 H25        -3.8948   -2.8491   -6.7440 H         1 <0>         0.0797
     68 H26        -2.9842   -3.2382   -9.2281 H         1 <0>         0.4112
     69 H27        -0.2193   -3.9430   -6.2302 H         1 <0>         0.1607
     70 H28        -0.9679   -4.3451  -10.3459 H         1 <0>         0.1988
     71 H29        -3.6059   -0.0950   -7.5536 H         1 <0>         0.4113
     72 H30        -2.9592   -0.1732  -10.1686 H         1 <0>         0.1151
     73 H31        -3.1485    1.7922   -8.6151 H         1 <0>         0.0904
     74 H32        -1.4335    2.1566   -8.9223 H         1 <0>         0.0826
     75 H33        -0.7034    2.9552  -11.0980 H         1 <0>         0.1094
     76 H34        -1.3274    4.1593  -13.1532 H         1 <0>         0.1150
     77 H35        -3.6948    4.3330  -13.8077 H         1 <0>         0.1161
     78 H36        -5.4381    3.3018  -12.4075 H         1 <0>         0.1169
     79 H37        -4.8134    2.0905  -10.3567 H         1 <0>         0.1151
     80 H38        -0.0421   -0.0378  -10.1764 H         1 <0>         0.4144
     81 H39        -0.1197    2.4785  -14.0226 H         1 <0>         0.0569
     82 H40        -0.9943    1.8343  -15.4327 H         1 <0>         0.0652
     83 H41        -1.7611    1.8185  -13.8264 H         1 <0>         0.1021
     84 H42         1.5142   -0.8053  -14.6593 H         1 <0>         0.0660
     85 H43         0.9183    0.3021  -15.9190 H         1 <0>         0.0797
     86 H44         1.7930    0.9462  -14.5090 H         1 <0>         0.0659
     87 H45        -2.1524   -0.6401  -14.0374 H         1 <0>         0.0874
     88 H46        -1.3857   -0.6243  -15.6437 H         1 <0>         0.0682
     89 H47        -0.7898   -1.7317  -14.3839 H         1 <0>         0.0572
     90 H48        -2.7896   -2.8357   -1.9214 H         1 <0>         0.3700
     91 H49        -2.7014    1.5014   -0.8745 H         1 <0>         0.3754
@<TRIPOS>BOND
     1    1    2 1
     2    1   45 1
     3    1   46 1
     4    1   47 1
     5    2    3 1
     6    2    4 1
     7    2   48 1
     8    3   49 1
     9    3   50 1
    10    3   51 1
    11    4    5 1
    12    4   52 1
    13    4   53 1
    14    5    6 1
    15    5    7 1
    16    5   44 1
    17    7    8 1
    18    7    9 1
    19    7   43 1
    20    9   10 1
    21    9   14 1
    22    9   54 1
    23   10   11 1
    24   10   55 1
    25   10   56 1
    26   11   12 1
    27   11   13 1
    28   11   57 1
    29   12   58 1
    30   12   59 1
    31   12   60 1
    32   13   61 1
    33   13   62 1
    34   13   63 1
    35   14   15 am
    36   14   64 1
    37   15   16 2
    38   15   17 1
    39   17   18 1
    40   17   24 1
    41   17   65 1
    42   18   66 1
    43   18   67 1
    44   18   19 1
    45   19   20 2
    46   19   23 1
    47   20   21 1
    48   20   69 1
    49   21   22 2
    50   22   70 1
    51   22   23 1
    52   23   68 1
    53   24   25 am
    54   24   71 1
    55   25   26 2
    56   25   27 1
    57   27   28 1
    58   27   35 1
    59   27   72 1
    60   28   29 1
    61   28   73 1
    62   28   74 1
    63   29   34 ar
    64   29   30 ar
    65   30   31 ar
    66   30   75 1
    67   31   32 ar
    68   31   76 1
    69   32   33 ar
    70   32   77 1
    71   33   34 ar
    72   33   78 1
    73   34   79 1
    74   35   36 am
    75   35   80 1
    76   36   37 2
    77   36   38 1
    78   38   39 1
    79   39   40 1
    80   39   41 1
    81   39   42 1
    82   40   81 1
    83   40   82 1
    84   40   83 1
    85   41   84 1
    86   41   85 1
    87   41   86 1
    88   42   87 1
    89   42   88 1
    90   42   89 1
    91   43   90 1
    92   44   91 1
@<TRIPOS>MOLECULE
CHEMBL308103__11
   91    92     0     0     0
SMALL
USER_CHARGES

@<TRIPOS>ATOM
      1 C1         -0.0187    1.5258    0.0104 C.3       1 <0>        -0.1488
      2 C2          0.0021   -0.0041    0.0020 C.3       1 <0>        -0.0945
      3 C3          0.7421   -0.5109    1.2415 C.3       1 <0>        -0.1495
      4 C4         -1.4333   -0.5336    0.0129 C.3       1 <0>        -0.1446
      5 C5         -1.4157   -2.0577   -0.1212 C.3       1 <0>         0.0759
      6 H1         -0.7891   -2.4841    0.6622 H         1 <0>         0.1011
      7 C6         -2.8406   -2.5981    0.0146 C.3       1 <0>         0.0676
      8 H2         -3.4671   -2.1717   -0.7688 H         1 <0>         0.1134
      9 C7         -2.8229   -4.1221   -0.1195 C.3       1 <0>         0.1166
     10 C8         -4.2478   -4.6626    0.0163 C.3       1 <0>        -0.1207
     11 C9         -4.2480   -6.1707   -0.2413 C.3       1 <0>        -0.0914
     12 C10        -5.6479   -6.7319    0.0160 C.3       1 <0>        -0.1488
     13 C11        -3.8496   -6.4400   -1.6938 C.3       1 <0>        -0.1404
     14 N1         -1.9808   -4.6953    0.9334 N.am      1 <0>        -0.7192
     15 C12        -1.4030   -5.8995    0.7534 C.2       1 <0>         0.5151
     16 O1         -1.5802   -6.5087   -0.2802 O.2       1 <0>        -0.5111
     17 C13        -0.5368   -6.4891    1.8365 C.3       1 <0>         0.1436
     18 C14        -1.3631   -6.6626    3.1125 C.3       1 <0>        -0.0395
     19 C15        -0.4690   -7.1362    4.2294 C.2       1 <0>         0.0023
     20 C16        -0.3201   -6.5433    5.4293 C.2       1 <0>        -0.0532
     21 N2          0.5785   -7.2973    6.1348 N.pl3     1 <0>        -0.5706
     22 C17         0.9477   -8.3254    5.3408 C.2       1 <0>         0.1911
     23 N3          0.3134   -8.2253    4.2047 N.2       1 <0>        -0.4508
     24 N4         -0.0307   -7.7932    1.4014 N.am      1 <0>        -0.7075
     25 C18         1.1133   -8.2799    1.9217 C.2       1 <0>         0.5460
     26 O2          1.7239   -7.6382    2.7502 O.2       1 <0>        -0.5114
     27 C19         1.6339   -9.6214    1.4741 C.3       1 <0>         0.1661
     28 C20         1.8975   -9.5892   -0.0327 C.3       1 <0>        -0.0945
     29 C21         2.3004  -10.9636   -0.5016 C.ar      1 <0>        -0.0624
     30 C22         3.6335  -11.3295   -0.5048 C.ar      1 <0>        -0.1086
     31 C23         4.0031  -12.5902   -0.9349 C.ar      1 <0>        -0.1099
     32 C24         3.0397  -13.4850   -1.3614 C.ar      1 <0>        -0.1220
     33 C25         1.7066  -13.1194   -1.3575 C.ar      1 <0>        -0.1116
     34 C26         1.3365  -11.8602   -0.9233 C.ar      1 <0>        -0.1032
     35 N5          2.8810   -9.9221    2.1816 N.am      1 <0>        -0.6904
     36 C27         3.2670  -11.2021    2.3525 C.2       1 <0>         0.6535
     37 O3          2.5807  -12.1066    1.9198 O.2       1 <0>        -0.5482
     38 O4          4.4131  -11.4784    3.0028 O.3       1 <0>        -0.3608
     39 C28         4.7606  -12.8569    3.1475 C.3       1 <0>         0.1388
     40 C29         4.9091  -13.4934    1.7641 C.3       1 <0>        -0.1922
     41 C30         6.0840  -12.9722    3.9067 C.3       1 <0>        -0.1412
     42 C31         3.6609  -13.5811    3.9267 C.3       1 <0>        -0.1842
     43 O5         -3.3665   -2.2385    1.2937 O.3       1 <0>        -0.5430
     44 O6         -0.8897   -2.4172   -1.4003 O.3       1 <0>        -0.5482
     45 H3          1.0039    1.9031    0.0027 H         1 <0>         0.0548
     46 H4         -0.5459    1.8868   -0.8726 H         1 <0>         0.0533
     47 H5         -0.5289    1.8773    0.9072 H         1 <0>         0.0537
     48 H6          0.5123   -0.3556   -0.8948 H         1 <0>         0.0758
     49 H7          0.2319   -0.1594    2.1383 H         1 <0>         0.0535
     50 H8          0.7568   -1.6008    1.2356 H         1 <0>         0.0537
     51 H9          1.7647   -0.1336    1.2338 H         1 <0>         0.0548
     52 H10        -1.9156   -0.2570    0.9504 H         1 <0>         0.0800
     53 H11        -1.9862   -0.1019   -0.8214 H         1 <0>         0.0659
     54 H12        -2.4217   -4.3964   -1.0952 H         1 <0>         0.1101
     55 H13        -4.6166   -4.4659    1.0230 H         1 <0>         0.0693
     56 H14        -4.8941   -4.1698   -0.7101 H         1 <0>         0.0698
     57 H15        -3.5345   -6.6535    0.4265 H         1 <0>         0.0737
     58 H16        -6.3613   -6.2492   -0.6519 H         1 <0>         0.0510
     59 H17        -5.6480   -7.8064   -0.1675 H         1 <0>         0.0525
     60 H18        -5.9316   -6.5401    1.0508 H         1 <0>         0.0493
     61 H19        -2.8523   -6.0402   -1.8772 H         1 <0>         0.0728
     62 H20        -3.8498   -7.5144   -1.8774 H         1 <0>         0.0476
     63 H21        -4.5631   -5.9573   -2.3617 H         1 <0>         0.0393
     64 H22        -1.8392   -4.2080    1.7601 H         1 <0>         0.3928
     65 H23         0.3018   -5.8216    2.0347 H         1 <0>         0.1113
     66 H24        -1.8127   -5.7082    3.3868 H         1 <0>         0.0827
     67 H25        -2.1488   -7.3979    2.9394 H         1 <0>         0.0821
     68 H26         0.8917   -7.1252    7.0366 H         1 <0>         0.4174
     69 H27        -0.8144   -5.6453    5.7695 H         1 <0>         0.1690
     70 H28         1.6486   -9.1037    5.6040 H         1 <0>         0.1958
     71 H29        -0.5190   -8.3064    0.7388 H         1 <0>         0.4072
     72 H30         0.8949  -10.3908    1.6973 H         1 <0>         0.1165
     73 H31         0.9916   -9.2787   -0.5535 H         1 <0>         0.0896
     74 H32         2.6996   -8.8828   -0.2463 H         1 <0>         0.0795
     75 H33         4.3862  -10.6304   -0.1715 H         1 <0>         0.1086
     76 H34         5.0446  -12.8758   -0.9380 H         1 <0>         0.1135
     77 H35         3.3286  -14.4697   -1.6982 H         1 <0>         0.1146
     78 H36         0.9539  -13.8184   -1.6911 H         1 <0>         0.1160
     79 H37         0.2947  -11.5758   -0.9167 H         1 <0>         0.1158
     80 H38         3.4288   -9.2000    2.5271 H         1 <0>         0.4107
     81 H39         5.6925  -12.9775    1.2090 H         1 <0>         0.0562
     82 H40         5.1742  -14.5449    1.8745 H         1 <0>         0.0637
     83 H41         3.9663  -13.4113    1.2233 H         1 <0>         0.1033
     84 H42         5.9782  -12.5188    4.8922 H         1 <0>         0.0644
     85 H43         6.3491  -14.0237    4.0170 H         1 <0>         0.0785
     86 H44         6.8675  -12.4563    3.3515 H         1 <0>         0.0651
     87 H45         2.7181  -13.4990    3.3859 H         1 <0>         0.0892
     88 H46         3.9261  -14.6326    4.0371 H         1 <0>         0.0666
     89 H47         3.5552  -13.1277    4.9123 H         1 <0>         0.0559
     90 H48        -2.8578   -2.5847    2.0396 H         1 <0>         0.3696
     91 H49        -1.3985   -2.0711   -2.1462 H         1 <0>         0.3752
@<TRIPOS>BOND
     1    1    2 1
     2    1   45 1
     3    1   46 1
     4    1   47 1
     5    2    3 1
     6    2    4 1
     7    2   48 1
     8    3   49 1
     9    3   50 1
    10    3   51 1
    11    4    5 1
    12    4   52 1
    13    4   53 1
    14    5    6 1
    15    5    7 1
    16    5   44 1
    17    7    8 1
    18    7    9 1
    19    7   43 1
    20    9   10 1
    21    9   14 1
    22    9   54 1
    23   10   11 1
    24   10   55 1
    25   10   56 1
    26   11   12 1
    27   11   13 1
    28   11   57 1
    29   12   58 1
    30   12   59 1
    31   12   60 1
    32   13   61 1
    33   13   62 1
    34   13   63 1
    35   14   15 am
    36   14   64 1
    37   15   16 2
    38   15   17 1
    39   17   18 1
    40   17   24 1
    41   17   65 1
    42   18   66 1
    43   18   67 1
    44   18   19 1
    45   19   20 2
    46   19   23 1
    47   20   21 1
    48   20   69 1
    49   21   22 1
    50   21   68 1
    51   22   70 1
    52   22   23 2
    53   24   25 am
    54   24   71 1
    55   25   26 2
    56   25   27 1
    57   27   28 1
    58   27   35 1
    59   27   72 1
    60   28   29 1
    61   28   73 1
    62   28   74 1
    63   29   34 ar
    64   29   30 ar
    65   30   31 ar
    66   30   75 1
    67   31   32 ar
    68   31   76 1
    69   32   33 ar
    70   32   77 1
    71   33   34 ar
    72   33   78 1
    73   34   79 1
    74   35   36 am
    75   35   80 1
    76   36   37 2
    77   36   38 1
    78   38   39 1
    79   39   40 1
    80   39   41 1
    81   39   42 1
    82   40   81 1
    83   40   82 1
    84   40   83 1
    85   41   84 1
    86   41   85 1
    87   41   86 1
    88   42   87 1
    89   42   88 1
    90   42   89 1
    91   43   90 1
    92   44   91 1
@<TRIPOS>MOLECULE
CHEMBL308103__12
   92    93     0     0     0
SMALL
USER_CHARGES

@<TRIPOS>ATOM
      1 C1          0.5174    3.3643   -0.6130 C.3       1 <0>        -0.1501
      2 C2         -0.1113    2.4077   -1.6281 C.3       1 <0>        -0.0947
      3 C3          0.7979    1.1912   -1.8134 C.3       1 <0>        -0.1508
      4 C4         -1.4789    1.9492   -1.1178 C.3       1 <0>        -0.1430
      5 C5         -2.1496    1.0706   -2.1756 C.3       1 <0>         0.0747
      6 H1         -1.4832    0.2503   -2.4423 H         1 <0>         0.1081
      7 C6         -3.4559    0.5047   -1.6149 C.3       1 <0>         0.0669
      8 H2         -4.1223    1.3250   -1.3481 H         1 <0>         0.1032
      9 C7         -4.1267   -0.3740   -2.6727 C.3       1 <0>         0.1107
     10 C8         -3.2463   -1.5928   -2.9562 C.3       1 <0>        -0.1331
     11 C9         -3.8253   -2.3768   -4.1356 C.3       1 <0>        -0.0895
     12 C10        -2.8603   -3.4984   -4.5252 C.3       1 <0>        -0.1513
     13 C11        -5.1730   -2.9799   -3.7347 C.3       1 <0>        -0.1581
     14 N1         -5.4330   -0.8189   -2.1810 N.am      1 <0>        -0.7089
     15 C12        -6.5519   -0.5090   -2.8655 C.2       1 <0>         0.5143
     16 O1         -6.4710    0.0523   -3.9376 O.2       1 <0>        -0.5098
     17 C13        -7.9035   -0.8599   -2.2988 C.3       1 <0>         0.1289
     18 C14        -7.9971   -2.3745   -2.1037 C.3       1 <0>        -0.0755
     19 C15        -9.2986   -2.7140   -1.4241 C.2       1 <0>         0.0431
     20 C16       -10.4858   -2.8951   -2.0334 C.2       1 <0>         0.0439
     21 N2        -11.3945   -3.1859   -1.0519 N.pl3     1 <0>        -0.5001
     22 C17       -10.7304   -3.1724    0.1239 C.cat     1 <0>         0.3130
     23 N3         -9.4764   -2.8944   -0.1070 N.pl3     1 <0>        -0.4671
     24 N4         -8.9503   -0.4212   -3.2250 N.am      1 <0>        -0.7053
     25 C18       -10.1889   -0.1554   -2.7651 C.2       1 <0>         0.5217
     26 O2        -10.4369   -0.2793   -1.5844 O.2       1 <0>        -0.5374
     27 C19       -11.2657    0.2959   -3.7179 C.3       1 <0>         0.1556
     28 C20       -10.8350    1.5990   -4.3942 C.3       1 <0>        -0.0916
     29 C21       -11.8538    1.9853   -5.4352 C.ar      1 <0>        -0.0749
     30 C22       -11.7210    1.5315   -6.7342 C.ar      1 <0>        -0.1030
     31 C23       -12.6555    1.8858   -7.6891 C.ar      1 <0>        -0.1093
     32 C24       -13.7232    2.6937   -7.3450 C.ar      1 <0>        -0.1144
     33 C25       -13.8566    3.1467   -6.0459 C.ar      1 <0>        -0.1083
     34 C26       -12.9243    2.7889   -5.0899 C.ar      1 <0>        -0.1083
     35 N5        -12.5106    0.5179   -2.9782 N.am      1 <0>        -0.7022
     36 C27       -13.6964    0.4295   -3.6127 C.2       1 <0>         0.6512
     37 O3        -13.7329    0.1656   -4.7983 O.2       1 <0>        -0.5388
     38 O4        -14.8405    0.6335   -2.9329 O.3       1 <0>        -0.3583
     39 C28       -16.0607    0.5239   -3.6686 C.3       1 <0>         0.1388
     40 C29       -16.1772   -0.8839   -4.2564 C.3       1 <0>        -0.1841
     41 C30       -17.2443    0.7865   -2.7354 C.3       1 <0>        -0.1430
     42 C31       -16.0669    1.5518   -4.8019 C.3       1 <0>        -0.1945
     43 O5         -3.1758   -0.2785   -0.4529 O.3       1 <0>        -0.5516
     44 O6         -2.4297    1.8538   -3.3375 O.3       1 <0>        -0.5490
     45 H3          1.5264    3.6230   -0.9341 H         1 <0>         0.0574
     46 H4         -0.0857    4.2698   -0.5452 H         1 <0>         0.0535
     47 H5          0.5593    2.8818    0.3635 H         1 <0>         0.0540
     48 H6         -0.2326    2.9194   -2.5828 H         1 <0>         0.0767
     49 H7          0.9193    0.6795   -0.8587 H         1 <0>         0.0539
     50 H8          0.3500    0.5096   -2.5366 H         1 <0>         0.0535
     51 H9          1.7722    1.5178   -2.1770 H         1 <0>         0.0573
     52 H10        -1.3507    1.3775   -0.1986 H         1 <0>         0.0803
     53 H11        -2.1035    2.8203   -0.9197 H         1 <0>         0.0651
     54 H12        -4.2598    0.1994   -3.5901 H         1 <0>         0.1239
     55 H13        -2.2365   -1.2627   -3.1999 H         1 <0>         0.0839
     56 H14        -3.2165   -2.2325   -2.0742 H         1 <0>         0.0695
     57 H15        -3.9649   -1.7067   -4.9838 H         1 <0>         0.0748
     58 H16        -2.7207   -4.1685   -3.6770 H         1 <0>         0.0539
     59 H17        -3.2728   -4.0570   -5.3655 H         1 <0>         0.0569
     60 H18        -1.9001   -3.0688   -4.8108 H         1 <0>         0.0578
     61 H19        -5.8915   -2.1792   -3.5590 H         1 <0>         0.0592
     62 H20        -5.5356   -3.6240   -4.5358 H         1 <0>         0.0522
     63 H21        -5.0522   -3.5660   -2.8237 H         1 <0>         0.0504
     64 H22        -5.4927   -1.3365   -1.3629 H         1 <0>         0.4026
     65 H23        -8.0355   -0.3610   -1.3387 H         1 <0>         0.1253
     66 H24        -7.9540   -2.8692   -3.0740 H         1 <0>         0.1244
     67 H25        -7.1654   -2.7134   -1.4859 H         1 <0>         0.1123
     68 H26       -12.3389   -3.3678   -1.1774 H         1 <0>         0.4656
     69 H27       -10.6832   -2.8241   -3.0929 H         1 <0>         0.2134
     70 H28       -11.1643   -3.3640    1.0942 H         1 <0>         0.2643
     71 H29        -8.7519   -0.3221   -4.1693 H         1 <0>         0.4222
     72 H30       -11.4252   -0.4712   -4.4757 H         1 <0>         0.1236
     73 H31       -10.7615    2.3891   -3.6469 H         1 <0>         0.0838
     74 H32        -9.8647    1.4578   -4.8703 H         1 <0>         0.0920
     75 H33       -10.8868    0.9003   -7.0030 H         1 <0>         0.1160
     76 H34       -12.5514    1.5318   -8.7041 H         1 <0>         0.1197
     77 H35       -14.4530    2.9711   -8.0913 H         1 <0>         0.1192
     78 H36       -14.6905    3.7781   -5.7771 H         1 <0>         0.1169
     79 H37       -13.0305    3.1398   -4.0741 H         1 <0>         0.1086
     80 H38       -12.4815    0.7286   -2.0318 H         1 <0>         0.4121
     81 H39       -16.1727   -1.6162   -3.4490 H         1 <0>         0.0545
     82 H40       -17.1078   -0.9674   -4.8176 H         1 <0>         0.0723
     83 H41       -15.3339   -1.0709   -4.9213 H         1 <0>         0.0870
     84 H42       -17.1613    1.7895   -2.3167 H         1 <0>         0.0676
     85 H43       -18.1750    0.7030   -3.2966 H         1 <0>         0.0833
     86 H44       -17.2398    0.0542   -1.9280 H         1 <0>         0.0644
     87 H45       -15.2237    1.3648   -5.4668 H         1 <0>         0.1016
     88 H46       -16.9976    1.4683   -5.3631 H         1 <0>         0.0690
     89 H47       -15.9839    2.5548   -4.3832 H         1 <0>         0.0589
     90 H48        -2.5871   -1.0281   -0.6164 H         1 <0>         0.3771
     91 H49        -3.0185    2.6033   -3.1741 H         1 <0>         0.3768
     92 H50        -8.7828   -2.8269    0.5677 H         1 <0>         0.4624
@<TRIPOS>BOND
     1    1    2 1
     2    1   45 1
     3    1   46 1
     4    1   47 1
     5    2    3 1
     6    2    4 1
     7    2   48 1
     8    3   49 1
     9    3   50 1
    10    3   51 1
    11    4    5 1
    12    4   52 1
    13    4   53 1
    14    5    6 1
    15    5    7 1
    16    5   44 1
    17    7    8 1
    18    7    9 1
    19    7   43 1
    20    9   10 1
    21    9   14 1
    22    9   54 1
    23   10   11 1
    24   10   55 1
    25   10   56 1
    26   11   12 1
    27   11   13 1
    28   11   57 1
    29   12   58 1
    30   12   59 1
    31   12   60 1
    32   13   61 1
    33   13   62 1
    34   13   63 1
    35   14   15 am
    36   14   64 1
    37   15   16 2
    38   15   17 1
    39   17   18 1
    40   17   24 1
    41   17   65 1
    42   18   66 1
    43   18   67 1
    44   18   19 1
    45   19   20 2
    46   19   23 1
    47   20   21 1
    48   20   69 1
    49   21   22 1
    50   21   68 1
    51   22   70 1
    52   22   23 2
    53   23   92 1
    54   24   25 am
    55   24   71 1
    56   25   26 2
    57   25   27 1
    58   27   28 1
    59   27   35 1
    60   27   72 1
    61   28   29 1
    62   28   73 1
    63   28   74 1
    64   29   34 ar
    65   29   30 ar
    66   30   31 ar
    67   30   75 1
    68   31   32 ar
    69   31   76 1
    70   32   33 ar
    71   32   77 1
    72   33   34 ar
    73   33   78 1
    74   34   79 1
    75   35   36 am
    76   35   80 1
    77   36   37 2
    78   36   38 1
    79   38   39 1
    80   39   40 1
    81   39   41 1
    82   39   42 1
    83   40   81 1
    84   40   82 1
    85   40   83 1
    86   41   84 1
    87   41   85 1
    88   41   86 1
    89   42   87 1
    90   42   88 1
    91   42   89 1
    92   43   90 1
    93   44   91 1
@<TRIPOS>MOLECULE
CHEMBL308103__13
   91    92     0     0     0
SMALL
USER_CHARGES

@<TRIPOS>ATOM
      1 C1          0.5174    3.3643   -0.6130 C.3       1 <0>        -0.1492
      2 C2         -0.1113    2.4077   -1.6281 C.3       1 <0>        -0.0945
      3 C3          0.7979    1.1912   -1.8134 C.3       1 <0>        -0.1504
      4 C4         -1.4789    1.9492   -1.1178 C.3       1 <0>        -0.1434
      5 C5         -2.1496    1.0706   -2.1756 C.3       1 <0>         0.0756
      6 H1         -1.4832    0.2503   -2.4423 H         1 <0>         0.1071
      7 C6         -3.4559    0.5047   -1.6149 C.3       1 <0>         0.0664
      8 H2         -4.1223    1.3250   -1.3481 H         1 <0>         0.1029
      9 C7         -4.1267   -0.3740   -2.6727 C.3       1 <0>         0.1115
     10 C8         -3.2463   -1.5928   -2.9562 C.3       1 <0>        -0.1317
     11 C9         -3.8253   -2.3768   -4.1356 C.3       1 <0>        -0.0886
     12 C10        -2.8603   -3.4984   -4.5252 C.3       1 <0>        -0.1492
     13 C11        -5.1730   -2.9799   -3.7347 C.3       1 <0>        -0.1596
     14 N1         -5.4330   -0.8189   -2.1810 N.am      1 <0>        -0.7130
     15 C12        -6.5519   -0.5090   -2.8655 C.2       1 <0>         0.5177
     16 O1         -6.4710    0.0523   -3.9376 O.2       1 <0>        -0.5226
     17 C13        -7.9035   -0.8599   -2.2988 C.3       1 <0>         0.1352
     18 C14        -7.9971   -2.3745   -2.1037 C.3       1 <0>        -0.0522
     19 C15        -9.2986   -2.7140   -1.4241 C.2       1 <0>        -0.0187
     20 C16       -10.4917   -2.8981   -2.0209 C.2       1 <0>        -0.0021
     21 N2        -11.3922   -3.1840   -1.0689 N.2       1 <0>        -0.4828
     22 C17       -10.8024   -3.1840    0.0953 C.2       1 <0>         0.1918
     23 N3         -9.4941   -2.9003   -0.0822 N.pl3     1 <0>        -0.5598
     24 N4         -8.9503   -0.4212   -3.2250 N.am      1 <0>        -0.7087
     25 C18       -10.1889   -0.1554   -2.7651 C.2       1 <0>         0.5191
     26 O2        -10.4369   -0.2793   -1.5844 O.2       1 <0>        -0.5073
     27 C19       -11.2657    0.2959   -3.7179 C.3       1 <0>         0.1610
     28 C20       -10.8350    1.5990   -4.3942 C.3       1 <0>        -0.0923
     29 C21       -11.8538    1.9853   -5.4352 C.ar      1 <0>        -0.0655
     30 C22       -11.7210    1.5315   -6.7342 C.ar      1 <0>        -0.1031
     31 C23       -12.6555    1.8858   -7.6891 C.ar      1 <0>        -0.1110
     32 C24       -13.7232    2.6937   -7.3450 C.ar      1 <0>        -0.1201
     33 C25       -13.8566    3.1467   -6.0459 C.ar      1 <0>        -0.1094
     34 C26       -12.9243    2.7889   -5.0899 C.ar      1 <0>        -0.1077
     35 N5        -12.5106    0.5179   -2.9782 N.am      1 <0>        -0.6933
     36 C27       -13.6964    0.4295   -3.6127 C.2       1 <0>         0.6571
     37 O3        -13.7329    0.1656   -4.7983 O.2       1 <0>        -0.5484
     38 O4        -14.8405    0.6335   -2.9329 O.3       1 <0>        -0.3579
     39 C28       -16.0607    0.5239   -3.6686 C.3       1 <0>         0.1386
     40 C29       -16.1772   -0.8839   -4.2564 C.3       1 <0>        -0.1847
     41 C30       -17.2443    0.7865   -2.7354 C.3       1 <0>        -0.1414
     42 C31       -16.0669    1.5518   -4.8019 C.3       1 <0>        -0.1917
     43 O5         -3.1758   -0.2785   -0.4529 O.3       1 <0>        -0.5506
     44 O6         -2.4297    1.8538   -3.3375 O.3       1 <0>        -0.5498
     45 H3          1.5264    3.6230   -0.9341 H         1 <0>         0.0556
     46 H4         -0.0857    4.2698   -0.5452 H         1 <0>         0.0531
     47 H5          0.5593    2.8818    0.3635 H         1 <0>         0.0537
     48 H6         -0.2326    2.9194   -2.5828 H         1 <0>         0.0762
     49 H7          0.9193    0.6795   -0.8587 H         1 <0>         0.0536
     50 H8          0.3500    0.5096   -2.5366 H         1 <0>         0.0546
     51 H9          1.7722    1.5178   -2.1770 H         1 <0>         0.0554
     52 H10        -1.3507    1.3775   -0.1986 H         1 <0>         0.0802
     53 H11        -2.1035    2.8203   -0.9197 H         1 <0>         0.0650
     54 H12        -4.2598    0.1994   -3.5901 H         1 <0>         0.1213
     55 H13        -2.2365   -1.2627   -3.1999 H         1 <0>         0.0793
     56 H14        -3.2165   -2.2325   -2.0742 H         1 <0>         0.0684
     57 H15        -3.9649   -1.7067   -4.9838 H         1 <0>         0.0730
     58 H16        -2.7207   -4.1685   -3.6770 H         1 <0>         0.0532
     59 H17        -3.2728   -4.0570   -5.3655 H         1 <0>         0.0557
     60 H18        -1.9001   -3.0688   -4.8108 H         1 <0>         0.0544
     61 H19        -5.8915   -2.1792   -3.5590 H         1 <0>         0.0657
     62 H20        -5.5356   -3.6240   -4.5358 H         1 <0>         0.0508
     63 H21        -5.0522   -3.5660   -2.8237 H         1 <0>         0.0506
     64 H22        -5.4927   -1.3365   -1.3629 H         1 <0>         0.4040
     65 H23        -8.0355   -0.3610   -1.3387 H         1 <0>         0.1163
     66 H24        -7.9540   -2.8692   -3.0740 H         1 <0>         0.0980
     67 H25        -7.1654   -2.7134   -1.4859 H         1 <0>         0.0837
     68 H26        -8.8193   -2.8384    0.6118 H         1 <0>         0.4149
     69 H27       -10.6889   -2.8279   -3.0804 H         1 <0>         0.1523
     70 H28       -11.2807   -3.3816    1.0432 H         1 <0>         0.2024
     71 H29        -8.7519   -0.3221   -4.1693 H         1 <0>         0.4125
     72 H30       -11.4252   -0.4712   -4.4757 H         1 <0>         0.1189
     73 H31       -10.7615    2.3891   -3.6469 H         1 <0>         0.0812
     74 H32        -9.8647    1.4578   -4.8703 H         1 <0>         0.0903
     75 H33       -10.8868    0.9003   -7.0030 H         1 <0>         0.1161
     76 H34       -12.5514    1.5318   -8.7041 H         1 <0>         0.1168
     77 H35       -14.4530    2.9711   -8.0913 H         1 <0>         0.1155
     78 H36       -14.6905    3.7781   -5.7771 H         1 <0>         0.1144
     79 H37       -13.0305    3.1398   -4.0741 H         1 <0>         0.1090
     80 H38       -12.4815    0.7286   -2.0318 H         1 <0>         0.4127
     81 H39       -16.1727   -1.6162   -3.4490 H         1 <0>         0.0584
     82 H40       -17.1078   -0.9674   -4.8176 H         1 <0>         0.0668
     83 H41       -15.3339   -1.0709   -4.9213 H         1 <0>         0.0884
     84 H42       -17.1613    1.7895   -2.3167 H         1 <0>         0.0648
     85 H43       -18.1750    0.7030   -3.2966 H         1 <0>         0.0790
     86 H44       -17.2398    0.0542   -1.9280 H         1 <0>         0.0658
     87 H45       -15.2237    1.3648   -5.4668 H         1 <0>         0.1023
     88 H46       -16.9976    1.4683   -5.3631 H         1 <0>         0.0644
     89 H47       -15.9839    2.5548   -4.3832 H         1 <0>         0.0558
     90 H48        -2.5871   -1.0281   -0.6164 H         1 <0>         0.3754
     91 H49        -3.0185    2.6033   -3.1741 H         1 <0>         0.3767
@<TRIPOS>BOND
     1    1    2 1
     2    1   45 1
     3    1   46 1
     4    1   47 1
     5    2    3 1
     6    2    4 1
     7    2   48 1
     8    3   49 1
     9    3   50 1
    10    3   51 1
    11    4    5 1
    12    4   52 1
    13    4   53 1
    14    5    6 1
    15    5    7 1
    16    5   44 1
    17    7    8 1
    18    7    9 1
    19    7   43 1
    20    9   10 1
    21    9   14 1
    22    9   54 1
    23   10   11 1
    24   10   55 1
    25   10   56 1
    26   11   12 1
    27   11   13 1
    28   11   57 1
    29   12   58 1
    30   12   59 1
    31   12   60 1
    32   13   61 1
    33   13   62 1
    34   13   63 1
    35   14   15 am
    36   14   64 1
    37   15   16 2
    38   15   17 1
    39   17   18 1
    40   17   24 1
    41   17   65 1
    42   18   66 1
    43   18   67 1
    44   18   19 1
    45   19   20 2
    46   19   23 1
    47   20   21 1
    48   20   69 1
    49   21   22 2
    50   22   70 1
    51   22   23 1
    52   23   68 1
    53   24   25 am
    54   24   71 1
    55   25   26 2
    56   25   27 1
    57   27   28 1
    58   27   35 1
    59   27   72 1
    60   28   29 1
    61   28   73 1
    62   28   74 1
    63   29   34 ar
    64   29   30 ar
    65   30   31 ar
    66   30   75 1
    67   31   32 ar
    68   31   76 1
    69   32   33 ar
    70   32   77 1
    71   33   34 ar
    72   33   78 1
    73   34   79 1
    74   35   36 am
    75   35   80 1
    76   36   37 2
    77   36   38 1
    78   38   39 1
    79   39   40 1
    80   39   41 1
    81   39   42 1
    82   40   81 1
    83   40   82 1
    84   40   83 1
    85   41   84 1
    86   41   85 1
    87   41   86 1
    88   42   87 1
    89   42   88 1
    90   42   89 1
    91   43   90 1
    92   44   91 1
@<TRIPOS>MOLECULE
CHEMBL308103__14
   91    92     0     0     0
SMALL
USER_CHARGES

@<TRIPOS>ATOM
      1 C1          1.2335    0.7297   -2.4826 C.3       1 <0>        -0.1489
      2 C2          0.8768   -0.5162   -1.6694 C.3       1 <0>        -0.0946
      3 C3          1.5263   -0.4261   -0.2870 C.3       1 <0>        -0.1499
      4 C4         -0.6426   -0.6061   -1.5141 C.3       1 <0>        -0.1436
      5 C5         -1.0068   -1.9146   -0.8097 C.3       1 <0>         0.0758
      6 H1         -0.4686   -1.9802    0.1359 H         1 <0>         0.1059
      7 C6         -2.5129   -1.9481   -0.5427 C.3       1 <0>         0.0662
      8 H2         -3.0511   -1.8825   -1.4883 H         1 <0>         0.1024
      9 C7         -2.8770   -3.2566    0.1616 C.3       1 <0>         0.1119
     10 C8         -2.2202   -3.2922    1.5430 C.3       1 <0>        -0.1311
     11 C9         -2.5165   -4.6348    2.2142 C.3       1 <0>        -0.0892
     12 C10        -1.8062   -4.6959    3.5680 C.3       1 <0>        -0.1488
     13 C11        -4.0253   -4.7786    2.4229 C.3       1 <0>        -0.1551
     14 N1         -4.3319   -3.3427    0.3103 N.am      1 <0>        -0.7110
     15 C12        -5.0216   -4.2944   -0.3493 C.2       1 <0>         0.5166
     16 O1         -4.4303   -5.1396   -0.9871 O.2       1 <0>        -0.5315
     17 C13        -6.5275   -4.3083   -0.2942 C.3       1 <0>         0.1381
     18 C14        -6.9834   -4.4612    1.1583 C.3       1 <0>        -0.0401
     19 C15        -8.4848   -4.3521    1.2277 C.2       1 <0>         0.0073
     20 C16        -9.3201   -5.2594    1.7686 C.2       1 <0>        -0.0574
     21 N2        -10.5888   -4.7675    1.6208 N.pl3     1 <0>        -0.5702
     22 C17       -10.4847   -3.5757    0.9942 C.2       1 <0>         0.1945
     23 N3         -9.2231   -3.3315    0.7667 N.2       1 <0>        -0.4521
     24 N4         -7.0348   -5.4317   -1.0860 N.am      1 <0>        -0.7073
     25 C18        -8.2771   -5.3828   -1.6064 C.2       1 <0>         0.5095
     26 O2         -8.9751   -4.4088   -1.4191 O.2       1 <0>        -0.4945
     27 C19        -8.7988   -6.5384   -2.4209 C.3       1 <0>         0.1595
     28 C20        -7.8966   -6.7532   -3.6377 C.3       1 <0>        -0.0922
     29 C21        -8.3452   -7.9827   -4.3849 C.ar      1 <0>        -0.0648
     30 C22        -7.8195   -9.2192   -4.0598 C.ar      1 <0>        -0.1034
     31 C23        -8.2309  -10.3469   -4.7451 C.ar      1 <0>        -0.1112
     32 C24        -9.1683  -10.2383   -5.7553 C.ar      1 <0>        -0.1207
     33 C25        -9.6947   -9.0019   -6.0797 C.ar      1 <0>        -0.1097
     34 C26        -9.2864   -7.8748   -5.3915 C.ar      1 <0>        -0.1083
     35 N5        -10.1619   -6.2435   -2.8695 N.am      1 <0>        -0.6946
     36 C27       -11.0092   -7.2512   -3.1581 C.2       1 <0>         0.6538
     37 O3        -10.6425   -8.4042   -3.0460 O.2       1 <0>        -0.5478
     38 O4        -12.2619   -6.9801   -3.5704 O.3       1 <0>        -0.3591
     39 C28       -13.1058   -8.0967   -3.8587 C.3       1 <0>         0.1383
     40 C29       -13.2633   -8.9549   -2.6019 C.3       1 <0>        -0.1842
     41 C30       -14.4793   -7.5950   -4.3091 C.3       1 <0>        -0.1414
     42 C31       -12.4784   -8.9357   -4.9738 C.3       1 <0>        -0.1922
     43 O5         -2.8740   -0.8432    0.2885 O.3       1 <0>        -0.5489
     44 O6         -0.6457   -3.0195   -1.6410 O.3       1 <0>        -0.5506
     45 H3          2.3160    0.7938   -2.5933 H         1 <0>         0.0548
     46 H4          0.7708    0.6655   -3.4675 H         1 <0>         0.0531
     47 H5          0.8679    1.6174   -1.9666 H         1 <0>         0.0538
     48 H6          1.2424   -1.4039   -2.1855 H         1 <0>         0.0761
     49 H7          1.1607    0.4616    0.2291 H         1 <0>         0.0537
     50 H8          1.2722   -1.3137    0.2923 H         1 <0>         0.0544
     51 H9          2.6088   -0.3621   -0.3977 H         1 <0>         0.0547
     52 H10        -0.9977    0.2367   -0.9211 H         1 <0>         0.0803
     53 H11        -1.1106   -0.5808   -2.4982 H         1 <0>         0.0650
     54 H12        -2.5219   -4.0994   -0.4314 H         1 <0>         0.1199
     55 H13        -1.1424   -3.1694    1.4361 H         1 <0>         0.0793
     56 H14        -2.6189   -2.4837    2.1558 H         1 <0>         0.0688
     57 H15        -2.1586   -5.4452    1.5792 H         1 <0>         0.0714
     58 H16        -2.1641   -3.8854    4.2029 H         1 <0>         0.0540
     59 H17        -2.0173   -5.6524    4.0461 H         1 <0>         0.0550
     60 H18        -0.7313   -4.5934    3.4193 H         1 <0>         0.0538
     61 H19        -4.5055   -4.9920    1.4679 H         1 <0>         0.0640
     62 H20        -4.2197   -5.5955    3.1179 H         1 <0>         0.0489
     63 H21        -4.4257   -3.8508    2.8317 H         1 <0>         0.0529
     64 H22        -4.7989   -2.7147    0.8835 H         1 <0>         0.4066
     65 H23        -6.9146   -3.3737   -0.7001 H         1 <0>         0.1261
     66 H24        -6.6720   -5.4350    1.5363 H         1 <0>         0.0819
     67 H25        -6.5335   -3.6752    1.7649 H         1 <0>         0.0866
     68 H26       -11.4095   -5.1950    1.9117 H         1 <0>         0.4166
     69 H27        -9.0423   -6.1955    2.2300 H         1 <0>         0.1660
     70 H28       -11.3086   -2.9298    0.7290 H         1 <0>         0.1997
     71 H29        -6.4765   -6.2107   -1.2358 H         1 <0>         0.4086
     72 H30        -8.8049   -7.4406   -1.8092 H         1 <0>         0.1151
     73 H31        -7.9598   -5.8856   -4.2946 H         1 <0>         0.0819
     74 H32        -6.8662   -6.8845   -3.3074 H         1 <0>         0.0908
     75 H33        -7.0871   -9.3040   -3.2706 H         1 <0>         0.1160
     76 H34        -7.8197  -11.3129   -4.4916 H         1 <0>         0.1167
     77 H35        -9.4893  -11.1193   -6.2912 H         1 <0>         0.1155
     78 H36       -10.4268   -8.9170   -6.8691 H         1 <0>         0.1143
     79 H37        -9.7004   -6.9093   -5.6425 H         1 <0>         0.1090
     80 H38       -10.4546   -5.3231   -2.9590 H         1 <0>         0.4129
     81 H39       -13.7103   -8.3572   -1.8075 H         1 <0>         0.0554
     82 H40       -13.9071   -9.8066   -2.8217 H         1 <0>         0.0680
     83 H41       -12.2849   -9.3123   -2.2809 H         1 <0>         0.0880
     84 H42       -14.3670   -6.9837   -5.2045 H         1 <0>         0.0660
     85 H43       -15.1230   -8.4467   -4.5290 H         1 <0>         0.0795
     86 H44       -14.9262   -6.9973   -3.5147 H         1 <0>         0.0647
     87 H45       -11.5000   -9.2931   -4.6529 H         1 <0>         0.1026
     88 H46       -13.1222   -9.7874   -5.1937 H         1 <0>         0.0648
     89 H47       -12.3662   -8.3243   -5.8692 H         1 <0>         0.0570
     90 H48        -2.4318   -0.8370    1.1485 H         1 <0>         0.3740
     91 H49        -1.0878   -3.0257   -2.5009 H         1 <0>         0.3767
@<TRIPOS>BOND
     1    1    2 1
     2    1   45 1
     3    1   46 1
     4    1   47 1
     5    2    3 1
     6    2    4 1
     7    2   48 1
     8    3   49 1
     9    3   50 1
    10    3   51 1
    11    4    5 1
    12    4   52 1
    13    4   53 1
    14    5    6 1
    15    5    7 1
    16    5   44 1
    17    7    8 1
    18    7    9 1
    19    7   43 1
    20    9   10 1
    21    9   14 1
    22    9   54 1
    23   10   11 1
    24   10   55 1
    25   10   56 1
    26   11   12 1
    27   11   13 1
    28   11   57 1
    29   12   58 1
    30   12   59 1
    31   12   60 1
    32   13   61 1
    33   13   62 1
    34   13   63 1
    35   14   15 am
    36   14   64 1
    37   15   16 2
    38   15   17 1
    39   17   18 1
    40   17   24 1
    41   17   65 1
    42   18   66 1
    43   18   67 1
    44   18   19 1
    45   19   20 2
    46   19   23 1
    47   20   21 1
    48   20   69 1
    49   21   22 1
    50   21   68 1
    51   22   70 1
    52   22   23 2
    53   24   25 am
    54   24   71 1
    55   25   26 2
    56   25   27 1
    57   27   28 1
    58   27   35 1
    59   27   72 1
    60   28   29 1
    61   28   73 1
    62   28   74 1
    63   29   34 ar
    64   29   30 ar
    65   30   31 ar
    66   30   75 1
    67   31   32 ar
    68   31   76 1
    69   32   33 ar
    70   32   77 1
    71   33   34 ar
    72   33   78 1
    73   34   79 1
    74   35   36 am
    75   35   80 1
    76   36   37 2
    77   36   38 1
    78   38   39 1
    79   39   40 1
    80   39   41 1
    81   39   42 1
    82   40   81 1
    83   40   82 1
    84   40   83 1
    85   41   84 1
    86   41   85 1
    87   41   86 1
    88   42   87 1
    89   42   88 1
    90   42   89 1
    91   43   90 1
    92   44   91 1
@<TRIPOS>MOLECULE
CHEMBL308103__15
   92    93     0     0     0
SMALL
USER_CHARGES

@<TRIPOS>ATOM
      1 C1          0.5174    3.3643   -0.6130 C.3       1 <0>        -0.1501
      2 C2         -0.1113    2.4077   -1.6281 C.3       1 <0>        -0.0947
      3 C3          0.7979    1.1912   -1.8134 C.3       1 <0>        -0.1507
      4 C4         -1.4789    1.9492   -1.1178 C.3       1 <0>        -0.1431
      5 C5         -2.1496    1.0706   -2.1756 C.3       1 <0>         0.0748
      6 H1         -1.4832    0.2503   -2.4423 H         1 <0>         0.1082
      7 C6         -3.4559    0.5047   -1.6149 C.3       1 <0>         0.0667
      8 H2         -4.1223    1.3250   -1.3481 H         1 <0>         0.1032
      9 C7         -4.1267   -0.3740   -2.6727 C.3       1 <0>         0.1106
     10 C8         -3.2463   -1.5928   -2.9562 C.3       1 <0>        -0.1330
     11 C9         -3.8253   -2.3768   -4.1356 C.3       1 <0>        -0.0895
     12 C10        -2.8603   -3.4984   -4.5252 C.3       1 <0>        -0.1513
     13 C11        -5.1730   -2.9799   -3.7347 C.3       1 <0>        -0.1582
     14 N1         -5.4330   -0.8189   -2.1810 N.am      1 <0>        -0.7089
     15 C12        -6.5519   -0.5090   -2.8655 C.2       1 <0>         0.5142
     16 O1         -6.4710    0.0523   -3.9376 O.2       1 <0>        -0.5097
     17 C13        -7.9035   -0.8599   -2.2988 C.3       1 <0>         0.1286
     18 C14        -7.9971   -2.3745   -2.1037 C.3       1 <0>        -0.0760
     19 C15        -9.2986   -2.7140   -1.4241 C.2       1 <0>         0.0457
     20 C16       -10.4858   -2.8951   -2.0334 C.2       1 <0>         0.0376
     21 N2        -11.3945   -3.1859   -1.0519 N.pl3     1 <0>        -0.5016
     22 C17       -10.7304   -3.1724    0.1239 C.cat     1 <0>         0.3145
     23 N3         -9.4764   -2.8944   -0.1070 N.pl3     1 <0>        -0.4670
     24 N4         -8.9503   -0.4212   -3.2250 N.am      1 <0>        -0.7053
     25 C18       -10.1889   -0.1554   -2.7651 C.2       1 <0>         0.5225
     26 O2        -10.4369   -0.2793   -1.5844 O.2       1 <0>        -0.5373
     27 C19       -11.2657    0.2959   -3.7179 C.3       1 <0>         0.1519
     28 C20       -11.4896   -0.7809   -4.7816 C.3       1 <0>        -0.0879
     29 C21       -12.4768   -0.2796   -5.8039 C.ar      1 <0>        -0.0790
     30 C22       -13.8299   -0.4970   -5.6227 C.ar      1 <0>        -0.1086
     31 C23       -14.7354   -0.0372   -6.5605 C.ar      1 <0>        -0.1084
     32 C24       -14.2880    0.6405   -7.6792 C.ar      1 <0>        -0.1122
     33 C25       -12.9349    0.8586   -7.8599 C.ar      1 <0>        -0.1076
     34 C26       -12.0297    0.4025   -6.9200 C.ar      1 <0>        -0.1010
     35 N5        -12.5106    0.5179   -2.9782 N.am      1 <0>        -0.7008
     36 C27       -13.4380    1.3692   -3.4598 C.2       1 <0>         0.6529
     37 O3        -13.2414    1.9526   -4.5074 O.2       1 <0>        -0.5361
     38 O4        -14.5820    1.5732   -2.7800 O.3       1 <0>        -0.3586
     39 C28       -15.5202    2.4888   -3.3488 C.3       1 <0>         0.1391
     40 C29       -15.9466    1.9893   -4.7307 C.3       1 <0>        -0.1929
     41 C30       -16.7482    2.5900   -2.4418 C.3       1 <0>        -0.1424
     42 C31       -14.8703    3.8674   -3.4830 C.3       1 <0>        -0.1869
     43 O5         -3.1758   -0.2785   -0.4529 O.3       1 <0>        -0.5515
     44 O6         -2.4297    1.8538   -3.3375 O.3       1 <0>        -0.5491
     45 H3          1.5264    3.6230   -0.9341 H         1 <0>         0.0575
     46 H4         -0.0857    4.2698   -0.5452 H         1 <0>         0.0535
     47 H5          0.5593    2.8818    0.3635 H         1 <0>         0.0540
     48 H6         -0.2326    2.9194   -2.5828 H         1 <0>         0.0767
     49 H7          0.9193    0.6795   -0.8587 H         1 <0>         0.0539
     50 H8          0.3500    0.5096   -2.5366 H         1 <0>         0.0535
     51 H9          1.7722    1.5178   -2.1770 H         1 <0>         0.0573
     52 H10        -1.3507    1.3775   -0.1986 H         1 <0>         0.0804
     53 H11        -2.1035    2.8203   -0.9197 H         1 <0>         0.0651
     54 H12        -4.2598    0.1994   -3.5901 H         1 <0>         0.1238
     55 H13        -2.2365   -1.2627   -3.1999 H         1 <0>         0.0839
     56 H14        -3.2165   -2.2325   -2.0742 H         1 <0>         0.0695
     57 H15        -3.9649   -1.7067   -4.9838 H         1 <0>         0.0748
     58 H16        -2.7206   -4.1685   -3.6770 H         1 <0>         0.0540
     59 H17        -3.2728   -4.0570   -5.3655 H         1 <0>         0.0569
     60 H18        -1.9001   -3.0688   -4.8108 H         1 <0>         0.0577
     61 H19        -5.8915   -2.1792   -3.5590 H         1 <0>         0.0592
     62 H20        -5.5356   -3.6240   -4.5358 H         1 <0>         0.0524
     63 H21        -5.0522   -3.5660   -2.8237 H         1 <0>         0.0505
     64 H22        -5.4927   -1.3365   -1.3629 H         1 <0>         0.4026
     65 H23        -8.0355   -0.3610   -1.3387 H         1 <0>         0.1252
     66 H24        -7.9540   -2.8692   -3.0740 H         1 <0>         0.1251
     67 H25        -7.1654   -2.7134   -1.4859 H         1 <0>         0.1128
     68 H26       -12.3389   -3.3678   -1.1774 H         1 <0>         0.4659
     69 H27       -10.6832   -2.8241   -3.0929 H         1 <0>         0.2142
     70 H28       -11.1643   -3.3640    1.0942 H         1 <0>         0.2650
     71 H29        -8.7519   -0.3221   -4.1693 H         1 <0>         0.4223
     72 H30       -10.9589    1.2242   -4.1997 H         1 <0>         0.1288
     73 H31       -10.5433   -1.0096   -5.2719 H         1 <0>         0.0920
     74 H32       -11.8813   -1.6819   -4.3096 H         1 <0>         0.0738
     75 H33       -14.1795   -1.0264   -4.7487 H         1 <0>         0.1066
     76 H34       -15.7925   -0.2076   -6.4193 H         1 <0>         0.1172
     77 H35       -14.9954    0.9991   -8.4122 H         1 <0>         0.1200
     78 H36       -12.5853    1.3877   -8.7341 H         1 <0>         0.1211
     79 H37       -10.9729    0.5762   -7.0593 H         1 <0>         0.1177
     80 H38       -12.6675    0.0522   -2.1419 H         1 <0>         0.4071
     81 H39       -16.4096    1.0071   -4.6351 H         1 <0>         0.0571
     82 H40       -16.6622    2.6876   -5.1646 H         1 <0>         0.0693
     83 H41       -15.0718    1.9172   -5.3769 H         1 <0>         0.1010
     84 H42       -16.4445    2.9458   -1.4574 H         1 <0>         0.0660
     85 H43       -17.4639    3.2883   -2.8757 H         1 <0>         0.0834
     86 H44       -17.2112    1.6078   -2.3462 H         1 <0>         0.0657
     87 H45       -13.9955    3.7953   -4.1292 H         1 <0>         0.0874
     88 H46       -15.5860    4.5657   -3.9169 H         1 <0>         0.0724
     89 H47       -14.5666    4.2232   -2.4985 H         1 <0>         0.0580
     90 H48        -2.5871   -1.0281   -0.6164 H         1 <0>         0.3771
     91 H49        -3.0185    2.6033   -3.1741 H         1 <0>         0.3770
     92 H50        -8.7828   -2.8269    0.5677 H         1 <0>         0.4628
@<TRIPOS>BOND
     1    1    2 1
     2    1   45 1
     3    1   46 1
     4    1   47 1
     5    2    3 1
     6    2    4 1
     7    2   48 1
     8    3   49 1
     9    3   50 1
    10    3   51 1
    11    4    5 1
    12    4   52 1
    13    4   53 1
    14    5    6 1
    15    5    7 1
    16    5   44 1
    17    7    8 1
    18    7    9 1
    19    7   43 1
    20    9   10 1
    21    9   14 1
    22    9   54 1
    23   10   11 1
    24   10   55 1
    25   10   56 1
    26   11   12 1
    27   11   13 1
    28   11   57 1
    29   12   58 1
    30   12   59 1
    31   12   60 1
    32   13   61 1
    33   13   62 1
    34   13   63 1
    35   14   15 am
    36   14   64 1
    37   15   16 2
    38   15   17 1
    39   17   18 1
    40   17   24 1
    41   17   65 1
    42   18   66 1
    43   18   67 1
    44   18   19 1
    45   19   20 2
    46   19   23 1
    47   20   21 1
    48   20   69 1
    49   21   22 1
    50   21   68 1
    51   22   70 1
    52   22   23 2
    53   23   92 1
    54   24   25 am
    55   24   71 1
    56   25   26 2
    57   25   27 1
    58   27   28 1
    59   27   35 1
    60   27   72 1
    61   28   29 1
    62   28   73 1
    63   28   74 1
    64   29   34 ar
    65   29   30 ar
    66   30   31 ar
    67   30   75 1
    68   31   32 ar
    69   31   76 1
    70   32   33 ar
    71   32   77 1
    72   33   34 ar
    73   33   78 1
    74   34   79 1
    75   35   36 am
    76   35   80 1
    77   36   37 2
    78   36   38 1
    79   38   39 1
    80   39   40 1
    81   39   41 1
    82   39   42 1
    83   40   81 1
    84   40   82 1
    85   40   83 1
    86   41   84 1
    87   41   85 1
    88   41   86 1
    89   42   87 1
    90   42   88 1
    91   42   89 1
    92   43   90 1
    93   44   91 1
@<TRIPOS>MOLECULE
CHEMBL308103__16
   91    92     0     0     0
SMALL
USER_CHARGES

@<TRIPOS>ATOM
      1 C1          1.2335    0.7297   -2.4826 C.3       1 <0>        -0.1489
      2 C2          0.8768   -0.5162   -1.6694 C.3       1 <0>        -0.0946
      3 C3          1.5263   -0.4261   -0.2870 C.3       1 <0>        -0.1498
      4 C4         -0.6426   -0.6061   -1.5141 C.3       1 <0>        -0.1437
      5 C5         -1.0068   -1.9146   -0.8097 C.3       1 <0>         0.0759
      6 H1         -0.4686   -1.9802    0.1359 H         1 <0>         0.1060
      7 C6         -2.5129   -1.9481   -0.5427 C.3       1 <0>         0.0660
      8 H2         -3.0511   -1.8825   -1.4883 H         1 <0>         0.1023
      9 C7         -2.8770   -3.2566    0.1616 C.3       1 <0>         0.1119
     10 C8         -2.2202   -3.2922    1.5430 C.3       1 <0>        -0.1311
     11 C9         -2.5165   -4.6348    2.2142 C.3       1 <0>        -0.0893
     12 C10        -1.8062   -4.6959    3.5680 C.3       1 <0>        -0.1488
     13 C11        -4.0253   -4.7786    2.4229 C.3       1 <0>        -0.1551
     14 N1         -4.3319   -3.3427    0.3103 N.am      1 <0>        -0.7111
     15 C12        -5.0216   -4.2944   -0.3493 C.2       1 <0>         0.5162
     16 O1         -4.4303   -5.1396   -0.9871 O.2       1 <0>        -0.5315
     17 C13        -6.5275   -4.3083   -0.2942 C.3       1 <0>         0.1379
     18 C14        -6.9834   -4.4612    1.1583 C.3       1 <0>        -0.0402
     19 C15        -8.4848   -4.3521    1.2277 C.2       1 <0>         0.0085
     20 C16        -9.3201   -5.2594    1.7686 C.2       1 <0>        -0.0579
     21 N2        -10.5888   -4.7675    1.6208 N.pl3     1 <0>        -0.5711
     22 C17       -10.4847   -3.5757    0.9942 C.2       1 <0>         0.1935
     23 N3         -9.2231   -3.3315    0.7667 N.2       1 <0>        -0.4519
     24 N4         -7.0348   -5.4317   -1.0860 N.am      1 <0>        -0.7072
     25 C18        -8.2771   -5.3828   -1.6064 C.2       1 <0>         0.5097
     26 O2         -8.9751   -4.4088   -1.4191 O.2       1 <0>        -0.4945
     27 C19        -8.7988   -6.5384   -2.4209 C.3       1 <0>         0.1574
     28 C20        -8.8073   -7.8048   -1.5623 C.3       1 <0>        -0.0870
     29 C21        -9.2118   -8.9835   -2.4098 C.ar      1 <0>        -0.0662
     30 C22       -10.5461   -9.3254   -2.5263 C.ar      1 <0>        -0.1079
     31 C23       -10.9172  -10.4066   -3.3036 C.ar      1 <0>        -0.1098
     32 C24        -9.9540  -11.1456   -3.9648 C.ar      1 <0>        -0.1202
     33 C25        -8.6198  -10.8031   -3.8490 C.ar      1 <0>        -0.1106
     34 C26        -8.2491   -9.7193   -3.0751 C.ar      1 <0>        -0.1034
     35 N5        -10.1619   -6.2435   -2.8695 N.am      1 <0>        -0.6946
     36 C27       -10.6496   -6.8359   -3.9776 C.2       1 <0>         0.6537
     37 O3         -9.9588   -7.6146   -4.6044 O.2       1 <0>        -0.5469
     38 O4        -11.9023   -6.5649   -4.3899 O.3       1 <0>        -0.3592
     39 C28       -12.3540   -7.2285   -5.5721 C.3       1 <0>         0.1382
     40 C29       -12.3111   -8.7424   -5.3552 C.3       1 <0>        -0.1918
     41 C30       -13.7892   -6.7981   -5.8818 C.3       1 <0>        -0.1413
     42 C31       -11.4453   -6.8554   -6.7452 C.3       1 <0>        -0.1855
     43 O5         -2.8740   -0.8432    0.2885 O.3       1 <0>        -0.5488
     44 O6         -0.6457   -3.0195   -1.6410 O.3       1 <0>        -0.5507
     45 H3          2.3160    0.7938   -2.5933 H         1 <0>         0.0549
     46 H4          0.7708    0.6655   -3.4675 H         1 <0>         0.0531
     47 H5          0.8679    1.6174   -1.9666 H         1 <0>         0.0538
     48 H6          1.2424   -1.4039   -2.1855 H         1 <0>         0.0761
     49 H7          1.1607    0.4616    0.2291 H         1 <0>         0.0537
     50 H8          1.2722   -1.3137    0.2923 H         1 <0>         0.0544
     51 H9          2.6088   -0.3621   -0.3977 H         1 <0>         0.0547
     52 H10        -0.9977    0.2367   -0.9211 H         1 <0>         0.0803
     53 H11        -1.1106   -0.5808   -2.4982 H         1 <0>         0.0650
     54 H12        -2.5219   -4.0994   -0.4314 H         1 <0>         0.1198
     55 H13        -1.1424   -3.1694    1.4361 H         1 <0>         0.0793
     56 H14        -2.6189   -2.4837    2.1558 H         1 <0>         0.0688
     57 H15        -2.1586   -5.4452    1.5792 H         1 <0>         0.0714
     58 H16        -2.1641   -3.8854    4.2029 H         1 <0>         0.0540
     59 H17        -2.0173   -5.6524    4.0461 H         1 <0>         0.0551
     60 H18        -0.7313   -4.5934    3.4193 H         1 <0>         0.0538
     61 H19        -4.5055   -4.9920    1.4679 H         1 <0>         0.0640
     62 H20        -4.2197   -5.5955    3.1179 H         1 <0>         0.0490
     63 H21        -4.4257   -3.8508    2.8317 H         1 <0>         0.0529
     64 H22        -4.7989   -2.7147    0.8835 H         1 <0>         0.4065
     65 H23        -6.9146   -3.3737   -0.7001 H         1 <0>         0.1257
     66 H24        -6.6720   -5.4350    1.5363 H         1 <0>         0.0824
     67 H25        -6.5335   -3.6752    1.7649 H         1 <0>         0.0866
     68 H26       -11.4095   -5.1950    1.9117 H         1 <0>         0.4168
     69 H27        -9.0423   -6.1955    2.2300 H         1 <0>         0.1666
     70 H28       -11.3086   -2.9298    0.7290 H         1 <0>         0.2001
     71 H29        -6.4765   -6.2107   -1.2358 H         1 <0>         0.4086
     72 H30        -8.1561   -6.6914   -3.2878 H         1 <0>         0.1173
     73 H31        -7.8103   -7.9748   -1.1557 H         1 <0>         0.0879
     74 H32        -9.5176   -7.6845   -0.7444 H         1 <0>         0.0791
     75 H33       -11.2986   -8.7481   -2.0098 H         1 <0>         0.1073
     76 H34       -11.9596  -10.6742   -3.3941 H         1 <0>         0.1141
     77 H35       -10.2439  -11.9907   -4.5715 H         1 <0>         0.1158
     78 H36        -7.8672  -11.3806   -4.3652 H         1 <0>         0.1173
     79 H37        -7.2070   -9.4494   -2.9876 H         1 <0>         0.1167
     80 H38       -10.7134   -5.6219   -2.3692 H         1 <0>         0.4118
     81 H39       -12.9584   -9.0082   -4.5195 H         1 <0>         0.0560
     82 H40       -12.6556   -9.2486   -6.2570 H         1 <0>         0.0650
     83 H41       -11.2886   -9.0490   -5.1346 H         1 <0>         0.1025
     84 H42       -13.8198   -5.7196   -6.0364 H         1 <0>         0.0656
     85 H43       -14.1337   -7.3043   -6.7836 H         1 <0>         0.0796
     86 H44       -14.4365   -7.0639   -5.0461 H         1 <0>         0.0650
     87 H45       -10.4228   -7.1620   -6.5245 H         1 <0>         0.0884
     88 H46       -11.7898   -7.3616   -7.6469 H         1 <0>         0.0681
     89 H47       -11.4759   -5.7768   -6.8997 H         1 <0>         0.0574
     90 H48        -2.4318   -0.8370    1.1485 H         1 <0>         0.3740
     91 H49        -1.0878   -3.0257   -2.5009 H         1 <0>         0.3768
@<TRIPOS>BOND
     1    1    2 1
     2    1   45 1
     3    1   46 1
     4    1   47 1
     5    2    3 1
     6    2    4 1
     7    2   48 1
     8    3   49 1
     9    3   50 1
    10    3   51 1
    11    4    5 1
    12    4   52 1
    13    4   53 1
    14    5    6 1
    15    5    7 1
    16    5   44 1
    17    7    8 1
    18    7    9 1
    19    7   43 1
    20    9   10 1
    21    9   14 1
    22    9   54 1
    23   10   11 1
    24   10   55 1
    25   10   56 1
    26   11   12 1
    27   11   13 1
    28   11   57 1
    29   12   58 1
    30   12   59 1
    31   12   60 1
    32   13   61 1
    33   13   62 1
    34   13   63 1
    35   14   15 am
    36   14   64 1
    37   15   16 2
    38   15   17 1
    39   17   18 1
    40   17   24 1
    41   17   65 1
    42   18   66 1
    43   18   67 1
    44   18   19 1
    45   19   20 2
    46   19   23 1
    47   20   21 1
    48   20   69 1
    49   21   22 1
    50   21   68 1
    51   22   70 1
    52   22   23 2
    53   24   25 am
    54   24   71 1
    55   25   26 2
    56   25   27 1
    57   27   28 1
    58   27   35 1
    59   27   72 1
    60   28   29 1
    61   28   73 1
    62   28   74 1
    63   29   34 ar
    64   29   30 ar
    65   30   31 ar
    66   30   75 1
    67   31   32 ar
    68   31   76 1
    69   32   33 ar
    70   32   77 1
    71   33   34 ar
    72   33   78 1
    73   34   79 1
    74   35   36 am
    75   35   80 1
    76   36   37 2
    77   36   38 1
    78   38   39 1
    79   39   40 1
    80   39   41 1
    81   39   42 1
    82   40   81 1
    83   40   82 1
    84   40   83 1
    85   41   84 1
    86   41   85 1
    87   41   86 1
    88   42   87 1
    89   42   88 1
    90   42   89 1
    91   43   90 1
    92   44   91 1
@<TRIPOS>MOLECULE
CHEMBL308103__17
   91    92     0     0     0
SMALL
USER_CHARGES

@<TRIPOS>ATOM
      1 C1          0.5174    3.3643   -0.6130 C.3       1 <0>        -0.1492
      2 C2         -0.1113    2.4077   -1.6281 C.3       1 <0>        -0.0945
      3 C3          0.7979    1.1912   -1.8134 C.3       1 <0>        -0.1503
      4 C4         -1.4789    1.9492   -1.1178 C.3       1 <0>        -0.1435
      5 C5         -2.1496    1.0706   -2.1756 C.3       1 <0>         0.0756
      6 H1         -1.4832    0.2503   -2.4423 H         1 <0>         0.1071
      7 C6         -3.4559    0.5047   -1.6149 C.3       1 <0>         0.0662
      8 H2         -4.1223    1.3250   -1.3481 H         1 <0>         0.1028
      9 C7         -4.1267   -0.3740   -2.6727 C.3       1 <0>         0.1114
     10 C8         -3.2463   -1.5928   -2.9562 C.3       1 <0>        -0.1316
     11 C9         -3.8253   -2.3768   -4.1356 C.3       1 <0>        -0.0887
     12 C10        -2.8603   -3.4984   -4.5252 C.3       1 <0>        -0.1491
     13 C11        -5.1730   -2.9799   -3.7347 C.3       1 <0>        -0.1596
     14 N1         -5.4330   -0.8189   -2.1810 N.am      1 <0>        -0.7130
     15 C12        -6.5519   -0.5090   -2.8655 C.2       1 <0>         0.5174
     16 O1         -6.4710    0.0523   -3.9376 O.2       1 <0>        -0.5225
     17 C13        -7.9035   -0.8599   -2.2988 C.3       1 <0>         0.1349
     18 C14        -7.9971   -2.3745   -2.1037 C.3       1 <0>        -0.0526
     19 C15        -9.2986   -2.7140   -1.4241 C.2       1 <0>        -0.0173
     20 C16       -10.4917   -2.8981   -2.0209 C.2       1 <0>        -0.0069
     21 N2        -11.3922   -3.1840   -1.0689 N.2       1 <0>        -0.4843
     22 C17       -10.8024   -3.1840    0.0953 C.2       1 <0>         0.1926
     23 N3         -9.4941   -2.9003   -0.0822 N.pl3     1 <0>        -0.5594
     24 N4         -8.9503   -0.4212   -3.2250 N.am      1 <0>        -0.7087
     25 C18       -10.1889   -0.1554   -2.7651 C.2       1 <0>         0.5190
     26 O2        -10.4369   -0.2793   -1.5844 O.2       1 <0>        -0.5074
     27 C19       -11.2657    0.2959   -3.7179 C.3       1 <0>         0.1601
     28 C20       -11.4896   -0.7809   -4.7816 C.3       1 <0>        -0.0929
     29 C21       -12.4768   -0.2796   -5.8039 C.ar      1 <0>        -0.0659
     30 C22       -13.8299   -0.4970   -5.6227 C.ar      1 <0>        -0.1059
     31 C23       -14.7354   -0.0372   -6.5605 C.ar      1 <0>        -0.1097
     32 C24       -14.2880    0.6405   -7.6792 C.ar      1 <0>        -0.1201
     33 C25       -12.9349    0.8586   -7.8599 C.ar      1 <0>        -0.1121
     34 C26       -12.0297    0.4025   -6.9200 C.ar      1 <0>        -0.1039
     35 N5        -12.5106    0.5179   -2.9782 N.am      1 <0>        -0.6941
     36 C27       -13.4380    1.3692   -3.4598 C.2       1 <0>         0.6545
     37 O3        -13.2414    1.9526   -4.5074 O.2       1 <0>        -0.5487
     38 O4        -14.5820    1.5732   -2.7800 O.3       1 <0>        -0.3576
     39 C28       -15.5202    2.4888   -3.3488 C.3       1 <0>         0.1380
     40 C29       -15.9466    1.9893   -4.7307 C.3       1 <0>        -0.1920
     41 C30       -16.7482    2.5900   -2.4418 C.3       1 <0>        -0.1415
     42 C31       -14.8703    3.8674   -3.4830 C.3       1 <0>        -0.1851
     43 O5         -3.1758   -0.2785   -0.4529 O.3       1 <0>        -0.5505
     44 O6         -2.4297    1.8538   -3.3375 O.3       1 <0>        -0.5499
     45 H3          1.5264    3.6230   -0.9341 H         1 <0>         0.0556
     46 H4         -0.0857    4.2698   -0.5452 H         1 <0>         0.0531
     47 H5          0.5593    2.8818    0.3635 H         1 <0>         0.0537
     48 H6         -0.2326    2.9194   -2.5828 H         1 <0>         0.0762
     49 H7          0.9193    0.6795   -0.8587 H         1 <0>         0.0536
     50 H8          0.3500    0.5096   -2.5366 H         1 <0>         0.0545
     51 H9          1.7722    1.5178   -2.1770 H         1 <0>         0.0554
     52 H10        -1.3507    1.3775   -0.1986 H         1 <0>         0.0803
     53 H11        -2.1035    2.8203   -0.9197 H         1 <0>         0.0650
     54 H12        -4.2598    0.1994   -3.5901 H         1 <0>         0.1213
     55 H13        -2.2365   -1.2627   -3.1999 H         1 <0>         0.0793
     56 H14        -3.2165   -2.2325   -2.0742 H         1 <0>         0.0684
     57 H15        -3.9649   -1.7067   -4.9838 H         1 <0>         0.0730
     58 H16        -2.7206   -4.1685   -3.6770 H         1 <0>         0.0533
     59 H17        -3.2728   -4.0570   -5.3655 H         1 <0>         0.0557
     60 H18        -1.9001   -3.0688   -4.8108 H         1 <0>         0.0544
     61 H19        -5.8915   -2.1792   -3.5590 H         1 <0>         0.0657
     62 H20        -5.5356   -3.6240   -4.5358 H         1 <0>         0.0509
     63 H21        -5.0522   -3.5660   -2.8237 H         1 <0>         0.0506
     64 H22        -5.4927   -1.3365   -1.3629 H         1 <0>         0.4040
     65 H23        -8.0355   -0.3610   -1.3387 H         1 <0>         0.1161
     66 H24        -7.9540   -2.8692   -3.0740 H         1 <0>         0.0986
     67 H25        -7.1654   -2.7134   -1.4859 H         1 <0>         0.0839
     68 H26        -8.8193   -2.8384    0.6118 H         1 <0>         0.4152
     69 H27       -10.6889   -2.8279   -3.0804 H         1 <0>         0.1552
     70 H28       -11.2807   -3.3816    1.0432 H         1 <0>         0.2028
     71 H29        -8.7519   -0.3221   -4.1693 H         1 <0>         0.4126
     72 H30       -10.9589    1.2242   -4.1997 H         1 <0>         0.1184
     73 H31       -10.5433   -1.0096   -5.2719 H         1 <0>         0.0876
     74 H32       -11.8813   -1.6819   -4.3096 H         1 <0>         0.0865
     75 H33       -14.1795   -1.0264   -4.7487 H         1 <0>         0.1110
     76 H34       -15.7925   -0.2076   -6.4193 H         1 <0>         0.1145
     77 H35       -14.9954    0.9991   -8.4122 H         1 <0>         0.1152
     78 H36       -12.5853    1.3877   -8.7341 H         1 <0>         0.1164
     79 H37       -10.9729    0.5762   -7.0593 H         1 <0>         0.1158
     80 H38       -12.6675    0.0522   -2.1419 H         1 <0>         0.4156
     81 H39       -16.4096    1.0071   -4.6351 H         1 <0>         0.0571
     82 H40       -16.6622    2.6876   -5.1646 H         1 <0>         0.0645
     83 H41       -15.0718    1.9172   -5.3769 H         1 <0>         0.1026
     84 H42       -16.4445    2.9458   -1.4574 H         1 <0>         0.0650
     85 H43       -17.4639    3.2883   -2.8757 H         1 <0>         0.0791
     86 H44       -17.2112    1.6078   -2.3462 H         1 <0>         0.0661
     87 H45       -13.9955    3.7953   -4.1292 H         1 <0>         0.0883
     88 H46       -15.5860    4.5657   -3.9169 H         1 <0>         0.0678
     89 H47       -14.5666    4.2232   -2.4985 H         1 <0>         0.0566
     90 H48        -2.5871   -1.0281   -0.6164 H         1 <0>         0.3753
     91 H49        -3.0185    2.6033   -3.1741 H         1 <0>         0.3768
@<TRIPOS>BOND
     1    1    2 1
     2    1   45 1
     3    1   46 1
     4    1   47 1
     5    2    3 1
     6    2    4 1
     7    2   48 1
     8    3   49 1
     9    3   50 1
    10    3   51 1
    11    4    5 1
    12    4   52 1
    13    4   53 1
    14    5    6 1
    15    5    7 1
    16    5   44 1
    17    7    8 1
    18    7    9 1
    19    7   43 1
    20    9   10 1
    21    9   14 1
    22    9   54 1
    23   10   11 1
    24   10   55 1
    25   10   56 1
    26   11   12 1
    27   11   13 1
    28   11   57 1
    29   12   58 1
    30   12   59 1
    31   12   60 1
    32   13   61 1
    33   13   62 1
    34   13   63 1
    35   14   15 am
    36   14   64 1
    37   15   16 2
    38   15   17 1
    39   17   18 1
    40   17   24 1
    41   17   65 1
    42   18   66 1
    43   18   67 1
    44   18   19 1
    45   19   20 2
    46   19   23 1
    47   20   21 1
    48   20   69 1
    49   21   22 2
    50   22   70 1
    51   22   23 1
    52   23   68 1
    53   24   25 am
    54   24   71 1
    55   25   26 2
    56   25   27 1
    57   27   28 1
    58   27   35 1
    59   27   72 1
    60   28   29 1
    61   28   73 1
    62   28   74 1
    63   29   34 ar
    64   29   30 ar
    65   30   31 ar
    66   30   75 1
    67   31   32 ar
    68   31   76 1
    69   32   33 ar
    70   32   77 1
    71   33   34 ar
    72   33   78 1
    73   34   79 1
    74   35   36 am
    75   35   80 1
    76   36   37 2
    77   36   38 1
    78   38   39 1
    79   39   40 1
    80   39   41 1
    81   39   42 1
    82   40   81 1
    83   40   82 1
    84   40   83 1
    85   41   84 1
    86   41   85 1
    87   41   86 1
    88   42   87 1
    89   42   88 1
    90   42   89 1
    91   43   90 1
    92   44   91 1
@<TRIPOS>MOLECULE
CHEMBL308103__18
   92    93     0     0     0
SMALL
USER_CHARGES

@<TRIPOS>ATOM
      1 C1          0.0087    3.7347   -0.5200 C.3       1 <0>        -0.1500
      2 C2         -0.4917    2.7528   -1.5814 C.3       1 <0>        -0.0947
      3 C3          0.5732    1.6823   -1.8282 C.3       1 <0>        -0.1514
      4 C4         -1.7802    2.0875   -1.0936 C.3       1 <0>        -0.1420
      5 C5         -2.3212    1.1621   -2.1853 C.3       1 <0>         0.0735
      6 H1         -1.5466    0.4530   -2.4773 H         1 <0>         0.1085
      7 C6         -3.5357    0.3996   -1.6519 C.3       1 <0>         0.0689
      8 H2         -4.3103    1.1087   -1.3599 H         1 <0>         0.1026
      9 C7         -4.0767   -0.5258   -2.7436 C.3       1 <0>         0.1106
     10 C8         -3.0344   -1.5988   -3.0652 C.3       1 <0>        -0.1333
     11 C9         -3.5049   -2.4233   -4.2651 C.3       1 <0>        -0.0893
     12 C10        -2.3974   -3.3924   -4.6837 C.3       1 <0>        -0.1511
     13 C11        -4.7567   -3.2147   -3.8807 C.3       1 <0>        -0.1548
     14 N1         -5.3081   -1.1662   -2.2749 N.am      1 <0>        -0.7082
     15 C12        -6.4596   -0.9895   -2.9527 C.2       1 <0>         0.5149
     16 O1         -6.4581   -0.3834   -4.0031 O.2       1 <0>        -0.5126
     17 C13        -7.7490   -1.5453   -2.4053 C.3       1 <0>         0.1257
     18 C14        -8.0290   -0.9277   -1.0337 C.3       1 <0>        -0.0705
     19 C15        -9.2512   -1.5726   -0.4325 C.2       1 <0>         0.0394
     20 C16        -9.2747   -2.7192    0.2734 C.2       1 <0>         0.0555
     21 N2        -10.5782   -2.9386    0.6290 N.pl3     1 <0>        -0.4991
     22 C17       -11.3063   -1.9178    0.1276 C.cat     1 <0>         0.3072
     23 N3        -10.5053   -1.1020   -0.5016 N.pl3     1 <0>        -0.4747
     24 N4         -8.8471   -1.2223   -3.3196 N.am      1 <0>        -0.7076
     25 C18        -9.9534   -1.9917   -3.3426 C.2       1 <0>         0.5161
     26 O2        -10.0398   -2.9516   -2.6063 O.2       1 <0>        -0.5320
     27 C19       -11.0830   -1.6595   -4.2831 C.3       1 <0>         0.1510
     28 C20       -11.6132   -0.2591   -3.9688 C.3       1 <0>        -0.0856
     29 C21       -12.6582    0.1223   -4.9854 C.ar      1 <0>        -0.0804
     30 C22       -12.2868    0.7699   -6.1488 C.ar      1 <0>        -0.1006
     31 C23       -13.2453    1.1198   -7.0813 C.ar      1 <0>        -0.1071
     32 C24       -14.5753    0.8216   -6.8507 C.ar      1 <0>        -0.1113
     33 C25       -14.9466    0.1731   -5.6878 C.ar      1 <0>        -0.1083
     34 C26       -13.9876   -0.1806   -4.7572 C.ar      1 <0>        -0.1084
     35 N5        -12.1604   -2.6382   -4.1173 N.am      1 <0>        -0.7010
     36 C27       -13.0169   -2.8757   -5.1305 C.2       1 <0>         0.6531
     37 O3        -12.8954   -2.2780   -6.1815 O.2       1 <0>        -0.5360
     38 O4        -14.0071   -3.7751   -4.9781 O.3       1 <0>        -0.3580
     39 C28       -14.8778   -3.9765   -6.0931 C.3       1 <0>         0.1390
     40 C29       -14.0640   -4.4606   -7.2949 C.3       1 <0>        -0.1870
     41 C30       -15.9314   -5.0264   -5.7344 C.3       1 <0>        -0.1424
     42 C31       -15.5705   -2.6581   -6.4440 C.3       1 <0>        -0.1926
     43 O5         -3.1492   -0.3778   -0.5168 O.3       1 <0>        -0.5523
     44 O6         -2.7077    1.9394   -3.3204 O.3       1 <0>        -0.5483
     45 H3          0.9705    4.1443   -0.8286 H         1 <0>         0.0574
     46 H4         -0.7116    4.5449   -0.4063 H         1 <0>         0.0531
     47 H5          0.1235    3.2145    0.4309 H         1 <0>         0.0541
     48 H6         -0.6888    3.2899   -2.5091 H         1 <0>         0.0764
     49 H7          0.7703    1.1452   -0.9004 H         1 <0>         0.0541
     50 H8          0.2168    0.9828   -2.5843 H         1 <0>         0.0541
     51 H9          1.4912    2.1563   -2.1756 H         1 <0>         0.0573
     52 H10        -1.5716    1.5065   -0.1953 H         1 <0>         0.0805
     53 H11        -2.5214    2.8538   -0.8667 H         1 <0>         0.0644
     54 H12        -4.2883    0.0557   -3.6409 H         1 <0>         0.1229
     55 H13        -2.0834   -1.1220   -3.3025 H         1 <0>         0.0832
     56 H14        -2.9078   -2.2525   -2.2023 H         1 <0>         0.0703
     57 H15        -3.7374   -1.7566   -5.0955 H         1 <0>         0.0731
     58 H16        -2.1650   -4.0592   -3.8533 H         1 <0>         0.0547
     59 H17        -2.7326   -3.9798   -5.5385 H         1 <0>         0.0567
     60 H18        -1.5057   -2.8286   -4.9576 H         1 <0>         0.0573
     61 H19        -5.5774   -2.5244   -3.6858 H         1 <0>         0.0572
     62 H20        -5.0297   -3.8823   -4.6980 H         1 <0>         0.0503
     63 H21        -4.5547   -3.8014   -2.9845 H         1 <0>         0.0514
     64 H22        -5.2948   -1.7173   -1.4768 H         1 <0>         0.4050
     65 H23        -7.6652   -2.6275   -2.3062 H         1 <0>         0.1290
     66 H24        -7.1726   -1.0919   -0.3797 H         1 <0>         0.1289
     67 H25        -8.2008    0.1428   -1.1455 H         1 <0>         0.1076
     68 H26       -10.9158   -3.6876    1.1447 H         1 <0>         0.4668
     69 H27        -8.4280   -3.3454    0.5126 H         1 <0>         0.2232
     70 H28       -12.3740   -1.7946    0.2335 H         1 <0>         0.2621
     71 H29        -8.7780   -0.4546   -3.9085 H         1 <0>         0.4212
     72 H30       -10.7207   -1.6886   -5.3107 H         1 <0>         0.1289
     73 H31       -12.0561   -0.2534   -2.9728 H         1 <0>         0.0691
     74 H32       -10.7923    0.4569   -4.0054 H         1 <0>         0.0902
     75 H33       -11.2477    1.0029   -6.3290 H         1 <0>         0.1173
     76 H34       -12.9552    1.6264   -7.9899 H         1 <0>         0.1214
     77 H35       -15.3243    1.0955   -7.5790 H         1 <0>         0.1205
     78 H36       -15.9857   -0.0596   -5.5075 H         1 <0>         0.1177
     79 H37       -14.2772   -0.6905   -3.8503 H         1 <0>         0.1070
     80 H38       -12.2574   -3.1153   -3.2784 H         1 <0>         0.4075
     81 H39       -13.5706   -5.3999   -7.0450 H         1 <0>         0.0583
     82 H40       -14.7282   -4.6142   -8.1454 H         1 <0>         0.0726
     83 H41       -13.3135   -3.7127   -7.5505 H         1 <0>         0.0871
     84 H42       -16.5112   -4.6815   -4.8782 H         1 <0>         0.0659
     85 H43       -16.5956   -5.1800   -6.5849 H         1 <0>         0.0836
     86 H44       -15.4380   -5.9656   -5.4845 H         1 <0>         0.0662
     87 H45       -14.8199   -1.9102   -6.6996 H         1 <0>         0.1004
     88 H46       -16.2347   -2.8117   -7.2945 H         1 <0>         0.0695
     89 H47       -16.1502   -2.3133   -5.5878 H         1 <0>         0.0571
     90 H48        -2.4614   -1.0313   -0.7035 H         1 <0>         0.3789
     91 H49        -3.3955    2.5930   -3.1337 H         1 <0>         0.3756
     92 H50       -10.7747   -0.2853   -0.9502 H         1 <0>         0.4577
@<TRIPOS>BOND
     1    1    2 1
     2    1   45 1
     3    1   46 1
     4    1   47 1
     5    2    3 1
     6    2    4 1
     7    2   48 1
     8    3   49 1
     9    3   50 1
    10    3   51 1
    11    4    5 1
    12    4   52 1
    13    4   53 1
    14    5    6 1
    15    5    7 1
    16    5   44 1
    17    7    8 1
    18    7    9 1
    19    7   43 1
    20    9   10 1
    21    9   14 1
    22    9   54 1
    23   10   11 1
    24   10   55 1
    25   10   56 1
    26   11   12 1
    27   11   13 1
    28   11   57 1
    29   12   58 1
    30   12   59 1
    31   12   60 1
    32   13   61 1
    33   13   62 1
    34   13   63 1
    35   14   15 am
    36   14   64 1
    37   15   16 2
    38   15   17 1
    39   17   18 1
    40   17   24 1
    41   17   65 1
    42   18   66 1
    43   18   67 1
    44   18   19 1
    45   19   20 2
    46   19   23 1
    47   20   21 1
    48   20   69 1
    49   21   22 1
    50   21   68 1
    51   22   70 1
    52   22   23 2
    53   23   92 1
    54   24   25 am
    55   24   71 1
    56   25   26 2
    57   25   27 1
    58   27   28 1
    59   27   35 1
    60   27   72 1
    61   28   29 1
    62   28   73 1
    63   28   74 1
    64   29   34 ar
    65   29   30 ar
    66   30   31 ar
    67   30   75 1
    68   31   32 ar
    69   31   76 1
    70   32   33 ar
    71   32   77 1
    72   33   34 ar
    73   33   78 1
    74   34   79 1
    75   35   36 am
    76   35   80 1
    77   36   37 2
    78   36   38 1
    79   38   39 1
    80   39   40 1
    81   39   41 1
    82   39   42 1
    83   40   81 1
    84   40   82 1
    85   40   83 1
    86   41   84 1
    87   41   85 1
    88   41   86 1
    89   42   87 1
    90   42   88 1
    91   42   89 1
    92   43   90 1
    93   44   91 1
@<TRIPOS>MOLECULE
CHEMBL308103__19
   91    92     0     0     0
SMALL
USER_CHARGES

@<TRIPOS>ATOM
      1 C1          0.0087    3.7347   -0.5200 C.3       1 <0>        -0.1492
      2 C2         -0.4917    2.7528   -1.5814 C.3       1 <0>        -0.0943
      3 C3          0.5732    1.6823   -1.8282 C.3       1 <0>        -0.1507
      4 C4         -1.7802    2.0875   -1.0936 C.3       1 <0>        -0.1430
      5 C5         -2.3212    1.1621   -2.1853 C.3       1 <0>         0.0748
      6 H1         -1.5466    0.4530   -2.4773 H         1 <0>         0.1072
      7 C6         -3.5357    0.3996   -1.6519 C.3       1 <0>         0.0676
      8 H2         -4.3103    1.1087   -1.3599 H         1 <0>         0.1030
      9 C7         -4.0767   -0.5258   -2.7436 C.3       1 <0>         0.1116
     10 C8         -3.0344   -1.5988   -3.0652 C.3       1 <0>        -0.1320
     11 C9         -3.5049   -2.4233   -4.2651 C.3       1 <0>        -0.0883
     12 C10        -2.3974   -3.3924   -4.6837 C.3       1 <0>        -0.1491
     13 C11        -4.7567   -3.2147   -3.8807 C.3       1 <0>        -0.1572
     14 N1         -5.3081   -1.1662   -2.2749 N.am      1 <0>        -0.7116
     15 C12        -6.4596   -0.9895   -2.9527 C.2       1 <0>         0.5186
     16 O1         -6.4581   -0.3834   -4.0031 O.2       1 <0>        -0.5265
     17 C13        -7.7490   -1.5453   -2.4053 C.3       1 <0>         0.1321
     18 C14        -8.0290   -0.9277   -1.0337 C.3       1 <0>        -0.0489
     19 C15        -9.2512   -1.5726   -0.4325 C.2       1 <0>        -0.0174
     20 C16        -9.2886   -2.7176    0.2753 C.2       1 <0>         0.0007
     21 N2        -10.5620   -2.9446    0.6302 N.2       1 <0>        -0.4841
     22 C17       -11.3151   -1.9837    0.1691 C.2       1 <0>         0.1909
     23 N3        -10.5357   -1.1039   -0.4958 N.pl3     1 <0>        -0.5641
     24 N4         -8.8471   -1.2223   -3.3196 N.am      1 <0>        -0.7101
     25 C18        -9.9534   -1.9917   -3.3426 C.2       1 <0>         0.5091
     26 O2        -10.0398   -2.9516   -2.6063 O.2       1 <0>        -0.4987
     27 C19       -11.0830   -1.6595   -4.2831 C.3       1 <0>         0.1572
     28 C20       -11.6132   -0.2591   -3.9688 C.3       1 <0>        -0.0886
     29 C21       -12.6582    0.1223   -4.9854 C.ar      1 <0>        -0.0689
     30 C22       -12.2868    0.7699   -6.1488 C.ar      1 <0>        -0.1027
     31 C23       -13.2453    1.1198   -7.0813 C.ar      1 <0>        -0.1104
     32 C24       -14.5753    0.8216   -6.8507 C.ar      1 <0>        -0.1182
     33 C25       -14.9466    0.1731   -5.6878 C.ar      1 <0>        -0.1091
     34 C26       -13.9876   -0.1806   -4.7572 C.ar      1 <0>        -0.1071
     35 N5        -12.1604   -2.6382   -4.1173 N.am      1 <0>        -0.6961
     36 C27       -13.0169   -2.8757   -5.1305 C.2       1 <0>         0.6546
     37 O3        -12.8954   -2.2780   -6.1815 O.2       1 <0>        -0.5467
     38 O4        -14.0071   -3.7751   -4.9781 O.3       1 <0>        -0.3571
     39 C28       -14.8778   -3.9765   -6.0931 C.3       1 <0>         0.1380
     40 C29       -14.0640   -4.4606   -7.2949 C.3       1 <0>        -0.1856
     41 C30       -15.9314   -5.0264   -5.7344 C.3       1 <0>        -0.1417
     42 C31       -15.5705   -2.6581   -6.4440 C.3       1 <0>        -0.1916
     43 O5         -3.1492   -0.3778   -0.5168 O.3       1 <0>        -0.5498
     44 O6         -2.7077    1.9394   -3.3204 O.3       1 <0>        -0.5499
     45 H3          0.9705    4.1443   -0.8286 H         1 <0>         0.0554
     46 H4         -0.7116    4.5449   -0.4063 H         1 <0>         0.0529
     47 H5          0.1235    3.2145    0.4309 H         1 <0>         0.0540
     48 H6         -0.6888    3.2899   -2.5091 H         1 <0>         0.0756
     49 H7          0.7703    1.1452   -0.9004 H         1 <0>         0.0539
     50 H8          0.2168    0.9828   -2.5843 H         1 <0>         0.0549
     51 H9          1.4912    2.1563   -2.1756 H         1 <0>         0.0551
     52 H10        -1.5716    1.5065   -0.1953 H         1 <0>         0.0807
     53 H11        -2.5214    2.8538   -0.8667 H         1 <0>         0.0648
     54 H12        -4.2883    0.0557   -3.6409 H         1 <0>         0.1202
     55 H13        -2.0834   -1.1220   -3.3025 H         1 <0>         0.0791
     56 H14        -2.9078   -2.2525   -2.2023 H         1 <0>         0.0697
     57 H15        -3.7374   -1.7566   -5.0955 H         1 <0>         0.0716
     58 H16        -2.1650   -4.0592   -3.8533 H         1 <0>         0.0541
     59 H17        -2.7326   -3.9798   -5.5385 H         1 <0>         0.0551
     60 H18        -1.5057   -2.8286   -4.9576 H         1 <0>         0.0544
     61 H19        -5.5774   -2.5244   -3.6858 H         1 <0>         0.0628
     62 H20        -5.0297   -3.8823   -4.6980 H         1 <0>         0.0487
     63 H21        -4.5547   -3.8014   -2.9845 H         1 <0>         0.0523
     64 H22        -5.2948   -1.7173   -1.4768 H         1 <0>         0.4068
     65 H23        -7.6652   -2.6275   -2.3062 H         1 <0>         0.1219
     66 H24        -7.1726   -1.0919   -0.3797 H         1 <0>         0.1026
     67 H25        -8.2008    0.1428   -1.1455 H         1 <0>         0.0793
     68 H26       -10.8311   -0.2922   -0.9372 H         1 <0>         0.4104
     69 H27        -8.4418   -3.3435    0.5152 H         1 <0>         0.1612
     70 H28       -12.3841   -1.9035    0.3006 H         1 <0>         0.2005
     71 H29        -8.7780   -0.4546   -3.9085 H         1 <0>         0.4112
     72 H30       -10.7207   -1.6886   -5.3107 H         1 <0>         0.1201
     73 H31       -12.0561   -0.2534   -2.9728 H         1 <0>         0.0761
     74 H32       -10.7923    0.4569   -4.0054 H         1 <0>         0.0875
     75 H33       -11.2477    1.0029   -6.3290 H         1 <0>         0.1161
     76 H34       -12.9552    1.6264   -7.9899 H         1 <0>         0.1177
     77 H35       -15.3243    1.0955   -7.5790 H         1 <0>         0.1166
     78 H36       -15.9857   -0.0596   -5.5075 H         1 <0>         0.1154
     79 H37       -14.2772   -0.6905   -3.8503 H         1 <0>         0.1092
     80 H38       -12.2574   -3.1153   -3.2784 H         1 <0>         0.4140
     81 H39       -13.5706   -5.3999   -7.0450 H         1 <0>         0.0576
     82 H40       -14.7282   -4.6142   -8.1454 H         1 <0>         0.0685
     83 H41       -13.3135   -3.7127   -7.5505 H         1 <0>         0.0879
     84 H42       -16.5112   -4.6815   -4.8782 H         1 <0>         0.0659
     85 H43       -16.5956   -5.1800   -6.5849 H         1 <0>         0.0798
     86 H44       -15.4380   -5.9656   -5.4845 H         1 <0>         0.0660
     87 H45       -14.8199   -1.9102   -6.6996 H         1 <0>         0.1017
     88 H46       -16.2347   -2.8117   -7.2945 H         1 <0>         0.0654
     89 H47       -16.1502   -2.3133   -5.5878 H         1 <0>         0.0566
     90 H48        -2.4614   -1.0313   -0.7035 H         1 <0>         0.3760
     91 H49        -3.3955    2.5930   -3.1337 H         1 <0>         0.3759
@<TRIPOS>BOND
     1    1    2 1
     2    1   45 1
     3    1   46 1
     4    1   47 1
     5    2    3 1
     6    2    4 1
     7    2   48 1
     8    3   49 1
     9    3   50 1
    10    3   51 1
    11    4    5 1
    12    4   52 1
    13    4   53 1
    14    5    6 1
    15    5    7 1
    16    5   44 1
    17    7    8 1
    18    7    9 1
    19    7   43 1
    20    9   10 1
    21    9   14 1
    22    9   54 1
    23   10   11 1
    24   10   55 1
    25   10   56 1
    26   11   12 1
    27   11   13 1
    28   11   57 1
    29   12   58 1
    30   12   59 1
    31   12   60 1
    32   13   61 1
    33   13   62 1
    34   13   63 1
    35   14   15 am
    36   14   64 1
    37   15   16 2
    38   15   17 1
    39   17   18 1
    40   17   24 1
    41   17   65 1
    42   18   66 1
    43   18   67 1
    44   18   19 1
    45   19   20 2
    46   19   23 1
    47   20   21 1
    48   20   69 1
    49   21   22 2
    50   22   70 1
    51   22   23 1
    52   23   68 1
    53   24   25 am
    54   24   71 1
    55   25   26 2
    56   25   27 1
    57   27   28 1
    58   27   35 1
    59   27   72 1
    60   28   29 1
    61   28   73 1
    62   28   74 1
    63   29   34 ar
    64   29   30 ar
    65   30   31 ar
    66   30   75 1
    67   31   32 ar
    68   31   76 1
    69   32   33 ar
    70   32   77 1
    71   33   34 ar
    72   33   78 1
    73   34   79 1
    74   35   36 am
    75   35   80 1
    76   36   37 2
    77   36   38 1
    78   38   39 1
    79   39   40 1
    80   39   41 1
    81   39   42 1
    82   40   81 1
    83   40   82 1
    84   40   83 1
    85   41   84 1
    86   41   85 1
    87   41   86 1
    88   42   87 1
    89   42   88 1
    90   42   89 1
    91   43   90 1
    92   44   91 1
@<TRIPOS>MOLECULE
CHEMBL308103__20
   91    92     0     0     0
SMALL
USER_CHARGES

@<TRIPOS>ATOM
      1 C1          1.9500    0.9553   -1.0610 C.3       1 <0>        -0.1489
      2 C2          1.3988   -0.3150   -0.4102 C.3       1 <0>        -0.0948
      3 C3          1.6033   -0.2421    1.1043 C.3       1 <0>        -0.1500
      4 C4         -0.0949   -0.4387   -0.7178 C.3       1 <0>        -0.1431
      5 C5         -0.6191   -1.7693   -0.1740 C.3       1 <0>         0.0754
      6 H1         -0.3863   -1.8447    0.8882 H         1 <0>         0.1057
      7 C6         -2.1349   -1.8387   -0.3702 C.3       1 <0>         0.0675
      8 H2         -2.3676   -1.7633   -1.4323 H         1 <0>         0.1035
      9 C7         -2.6591   -3.1693    0.1736 C.3       1 <0>         0.1116
     10 C8         -2.4440   -3.2218    1.6875 C.3       1 <0>        -0.1308
     11 C9         -2.9175   -4.5745    2.2232 C.3       1 <0>        -0.0892
     12 C10        -2.5919   -4.6745    3.7148 C.3       1 <0>        -0.1486
     13 C11        -4.4287   -4.7023    2.0213 C.3       1 <0>        -0.1506
     14 N1         -4.0893   -3.2877   -0.1209 N.am      1 <0>        -0.7130
     15 C12        -4.5332   -4.2793   -0.9185 C.2       1 <0>         0.5161
     16 O1         -3.7610   -5.1202   -1.3276 O.2       1 <0>        -0.5283
     17 C13        -5.9892   -4.3431   -1.3019 C.3       1 <0>         0.1420
     18 C14        -6.3761   -3.0657   -2.0500 C.3       1 <0>        -0.0391
     19 C15        -7.8576   -3.0741   -2.3256 C.2       1 <0>         0.0039
     20 C16        -8.7331   -2.1125   -1.9757 C.2       1 <0>        -0.0506
     21 N2         -9.9638   -2.5178   -2.4169 N.pl3     1 <0>        -0.5699
     22 C17        -9.7975   -3.7138   -3.0215 C.2       1 <0>         0.1860
     23 N3         -8.5345   -4.0378   -2.9675 N.2       1 <0>        -0.4516
     24 N4         -6.2160   -5.5033   -2.1671 N.am      1 <0>        -0.7087
     25 C18        -7.4388   -6.0663   -2.2328 C.2       1 <0>         0.5450
     26 O2         -8.3514   -5.6123   -1.5756 O.2       1 <0>        -0.5105
     27 C19        -7.6720   -7.2598   -3.1228 C.3       1 <0>         0.1648
     28 C20        -7.3599   -6.8837   -4.5726 C.3       1 <0>        -0.0834
     29 C21        -7.4742   -8.1073   -5.4448 C.ar      1 <0>        -0.0638
     30 C22        -6.3704   -8.9128   -5.6537 C.ar      1 <0>        -0.1050
     31 C23        -6.4752  -10.0352   -6.4537 C.ar      1 <0>        -0.1116
     32 C24        -7.6840  -10.3524   -7.0446 C.ar      1 <0>        -0.1227
     33 C25        -8.7881   -9.5474   -6.8350 C.ar      1 <0>        -0.1108
     34 C26        -8.6843   -8.4273   -6.0315 C.ar      1 <0>        -0.1077
     35 N5         -9.0712   -7.6812   -3.0180 N.am      1 <0>        -0.6913
     36 C27        -9.4127   -8.9570   -3.2867 C.2       1 <0>         0.6520
     37 O3         -8.5601   -9.7577   -3.6159 O.2       1 <0>        -0.5487
     38 O4        -10.6986   -9.3442   -3.1903 O.3       1 <0>        -0.3604
     39 C28       -10.9887  -10.7111   -3.4896 C.3       1 <0>         0.1385
     40 C29       -10.2133  -11.6184   -2.5323 C.3       1 <0>        -0.1853
     41 C30       -12.4892  -10.9615   -3.3266 C.3       1 <0>        -0.1411
     42 C31       -10.5741  -11.0168   -4.9303 C.3       1 <0>        -0.1916
     43 O5         -2.7559   -0.7597    0.3314 O.3       1 <0>        -0.5504
     44 O6          0.0019   -2.8483   -0.8755 O.3       1 <0>        -0.5502
     45 H3          3.0141    1.0434   -0.8420 H         1 <0>         0.0549
     46 H4          1.8043    0.9033   -2.1400 H         1 <0>         0.0532
     47 H5          1.4243    1.8240   -0.6648 H         1 <0>         0.0536
     48 H6          1.9244   -1.1837   -0.8065 H         1 <0>         0.0763
     49 H7          1.0777    0.6266    1.5005 H         1 <0>         0.0535
     50 H8          1.2106   -1.1471    1.5679 H         1 <0>         0.0545
     51 H9          2.6675   -0.1540    1.3233 H         1 <0>         0.0548
     52 H10        -0.6324    0.3838   -0.2457 H         1 <0>         0.0800
     53 H11        -0.2481   -0.4012   -1.7963 H         1 <0>         0.0651
     54 H12        -2.1216   -3.9917   -0.2985 H         1 <0>         0.1200
     55 H13        -1.3843   -3.0942    1.9085 H         1 <0>         0.0790
     56 H14        -3.0131   -2.4232    2.1632 H         1 <0>         0.0679
     57 H15        -2.4101   -5.3758    1.6861 H         1 <0>         0.0717
     58 H16        -3.0993   -3.8731    4.2520 H         1 <0>         0.0537
     59 H17        -2.9293   -5.6381    4.0965 H         1 <0>         0.0551
     60 H18        -1.5153   -4.5834    3.8587 H         1 <0>         0.0543
     61 H19        -4.6379   -4.9257    0.9752 H         1 <0>         0.0591
     62 H20        -4.8122   -5.5072    2.6484 H         1 <0>         0.0486
     63 H21        -4.9126   -3.7652    2.2966 H         1 <0>         0.0519
     64 H22        -4.7167   -2.6525    0.2582 H         1 <0>         0.4048
     65 H23        -6.5981   -4.4359   -0.4026 H         1 <0>         0.1122
     66 H24        -6.1247   -2.1976   -1.4407 H         1 <0>         0.0860
     67 H25        -5.8314   -3.0178   -2.9930 H         1 <0>         0.0816
     68 H26       -10.7994   -2.0359   -2.3144 H         1 <0>         0.4177
     69 H27        -8.5076   -1.1976   -1.4480 H         1 <0>         0.1692
     70 H28       -10.5794   -4.3026   -3.4779 H         1 <0>         0.1972
     71 H29        -5.4860   -5.8664   -2.6927 H         1 <0>         0.4070
     72 H30        -7.0220   -8.0776   -2.8116 H         1 <0>         0.1103
     73 H31        -8.0680   -6.1279   -4.9124 H         1 <0>         0.0886
     74 H32        -6.3468   -6.4864   -4.6349 H         1 <0>         0.0838
     75 H33        -5.4260   -8.6650   -5.1921 H         1 <0>         0.1154
     76 H34        -5.6126  -10.6641   -6.6175 H         1 <0>         0.1155
     77 H35        -7.7658  -11.2289   -7.6702 H         1 <0>         0.1141
     78 H36        -9.7324   -9.7950   -7.2969 H         1 <0>         0.1129
     79 H37        -9.5478   -7.8005   -5.8647 H         1 <0>         0.1086
     80 H38        -9.7518   -7.0420   -2.7552 H         1 <0>         0.4118
     81 H39       -10.5086  -11.4006   -1.5060 H         1 <0>         0.0565
     82 H40       -10.4345  -12.6610   -2.7606 H         1 <0>         0.0672
     83 H41        -9.1442  -11.4400   -2.6485 H         1 <0>         0.0889
     84 H42       -13.0416  -10.3151   -4.0086 H         1 <0>         0.0650
     85 H43       -12.7105  -12.0041   -3.5549 H         1 <0>         0.0788
     86 H44       -12.7845  -10.7437   -2.3003 H         1 <0>         0.0647
     87 H45        -9.5051  -10.8384   -5.0464 H         1 <0>         0.1031
     88 H46       -10.7954  -12.0594   -5.1586 H         1 <0>         0.0638
     89 H47       -11.1265  -10.3703   -5.6123 H         1 <0>         0.0562
     90 H48        -2.5910   -0.7634    1.2842 H         1 <0>         0.3747
     91 H49        -0.1630   -2.8446   -1.8284 H         1 <0>         0.3767
@<TRIPOS>BOND
     1    1    2 1
     2    1   45 1
     3    1   46 1
     4    1   47 1
     5    2    3 1
     6    2    4 1
     7    2   48 1
     8    3   49 1
     9    3   50 1
    10    3   51 1
    11    4    5 1
    12    4   52 1
    13    4   53 1
    14    5    6 1
    15    5    7 1
    16    5   44 1
    17    7    8 1
    18    7    9 1
    19    7   43 1
    20    9   10 1
    21    9   14 1
    22    9   54 1
    23   10   11 1
    24   10   55 1
    25   10   56 1
    26   11   12 1
    27   11   13 1
    28   11   57 1
    29   12   58 1
    30   12   59 1
    31   12   60 1
    32   13   61 1
    33   13   62 1
    34   13   63 1
    35   14   15 am
    36   14   64 1
    37   15   16 2
    38   15   17 1
    39   17   18 1
    40   17   24 1
    41   17   65 1
    42   18   66 1
    43   18   67 1
    44   18   19 1
    45   19   20 2
    46   19   23 1
    47   20   21 1
    48   20   69 1
    49   21   22 1
    50   21   68 1
    51   22   70 1
    52   22   23 2
    53   24   25 am
    54   24   71 1
    55   25   26 2
    56   25   27 1
    57   27   28 1
    58   27   35 1
    59   27   72 1
    60   28   29 1
    61   28   73 1
    62   28   74 1
    63   29   34 ar
    64   29   30 ar
    65   30   31 ar
    66   30   75 1
    67   31   32 ar
    68   31   76 1
    69   32   33 ar
    70   32   77 1
    71   33   34 ar
    72   33   78 1
    73   34   79 1
    74   35   36 am
    75   35   80 1
    76   36   37 2
    77   36   38 1
    78   38   39 1
    79   39   40 1
    80   39   41 1
    81   39   42 1
    82   40   81 1
    83   40   82 1
    84   40   83 1
    85   41   84 1
    86   41   85 1
    87   41   86 1
    88   42   87 1
    89   42   88 1
    90   42   89 1
    91   43   90 1
    92   44   91 1
@<TRIPOS>MOLECULE
CHEMBL308103__21
   92    93     0     0     0
SMALL
USER_CHARGES

@<TRIPOS>ATOM
      1 C1          0.0087    3.7347   -0.5200 C.3       1 <0>        -0.1500
      2 C2         -0.4917    2.7528   -1.5814 C.3       1 <0>        -0.0947
      3 C3          0.5732    1.6823   -1.8282 C.3       1 <0>        -0.1514
      4 C4         -1.7802    2.0875   -1.0936 C.3       1 <0>        -0.1421
      5 C5         -2.3212    1.1621   -2.1853 C.3       1 <0>         0.0736
      6 H1         -1.5466    0.4530   -2.4773 H         1 <0>         0.1086
      7 C6         -3.5357    0.3996   -1.6519 C.3       1 <0>         0.0687
      8 H2         -4.3103    1.1087   -1.3599 H         1 <0>         0.1025
      9 C7         -4.0767   -0.5258   -2.7436 C.3       1 <0>         0.1108
     10 C8         -3.0344   -1.5988   -3.0652 C.3       1 <0>        -0.1334
     11 C9         -3.5049   -2.4233   -4.2651 C.3       1 <0>        -0.0891
     12 C10        -2.3974   -3.3924   -4.6837 C.3       1 <0>        -0.1512
     13 C11        -4.7567   -3.2147   -3.8807 C.3       1 <0>        -0.1547
     14 N1         -5.3081   -1.1662   -2.2749 N.am      1 <0>        -0.7082
     15 C12        -6.4596   -0.9895   -2.9527 C.2       1 <0>         0.5151
     16 O1         -6.4581   -0.3834   -4.0031 O.2       1 <0>        -0.5126
     17 C13        -7.7490   -1.5453   -2.4053 C.3       1 <0>         0.1260
     18 C14        -8.0290   -0.9277   -1.0337 C.3       1 <0>        -0.0705
     19 C15        -9.2512   -1.5726   -0.4325 C.2       1 <0>         0.0384
     20 C16        -9.2747   -2.7192    0.2734 C.2       1 <0>         0.0545
     21 N2        -10.5782   -2.9386    0.6290 N.pl3     1 <0>        -0.5002
     22 C17       -11.3063   -1.9178    0.1276 C.cat     1 <0>         0.3115
     23 N3        -10.5053   -1.1020   -0.5016 N.pl3     1 <0>        -0.4735
     24 N4         -8.8471   -1.2223   -3.3196 N.am      1 <0>        -0.7076
     25 C18        -9.9534   -1.9917   -3.3426 C.2       1 <0>         0.5149
     26 O2        -10.0398   -2.9516   -2.6063 O.2       1 <0>        -0.5322
     27 C19       -11.0830   -1.6595   -4.2831 C.3       1 <0>         0.1556
     28 C20       -10.5744   -1.7003   -5.7255 C.3       1 <0>        -0.0913
     29 C21       -11.6696   -1.2493   -6.6573 C.ar      1 <0>        -0.0750
     30 C22       -12.5546   -2.1726   -7.1819 C.ar      1 <0>        -0.1080
     31 C23       -13.5592   -1.7589   -8.0366 C.ar      1 <0>        -0.1077
     32 C24       -13.6791   -0.4218   -8.3664 C.ar      1 <0>        -0.1141
     33 C25       -12.7946    0.5016   -7.8410 C.ar      1 <0>        -0.1094
     34 C26       -11.7927    0.0885   -6.9830 C.ar      1 <0>        -0.1036
     35 N5        -12.1604   -2.6382   -4.1173 N.am      1 <0>        -0.7027
     36 C27       -13.4271   -2.3066   -4.4368 C.2       1 <0>         0.6514
     37 O3        -13.6755   -1.1959   -4.8624 O.2       1 <0>        -0.5393
     38 O4        -14.4173   -3.2061   -4.2845 O.3       1 <0>        -0.3575
     39 C28       -15.7355   -2.7867   -4.6428 C.3       1 <0>         0.1387
     40 C29       -15.7614   -2.3933   -6.1211 C.3       1 <0>        -0.1949
     41 C30       -16.7186   -3.9343   -4.4031 C.3       1 <0>        -0.1431
     42 C31       -16.1380   -1.5834   -3.7877 C.3       1 <0>        -0.1838
     43 O5         -3.1492   -0.3777   -0.5168 O.3       1 <0>        -0.5523
     44 O6         -2.7077    1.9394   -3.3204 O.3       1 <0>        -0.5484
     45 H3          0.9705    4.1443   -0.8286 H         1 <0>         0.0574
     46 H4         -0.7116    4.5449   -0.4063 H         1 <0>         0.0531
     47 H5          0.1235    3.2145    0.4309 H         1 <0>         0.0541
     48 H6         -0.6888    3.2899   -2.5091 H         1 <0>         0.0764
     49 H7          0.7703    1.1452   -0.9004 H         1 <0>         0.0540
     50 H8          0.2168    0.9828   -2.5843 H         1 <0>         0.0541
     51 H9          1.4912    2.1563   -2.1756 H         1 <0>         0.0573
     52 H10        -1.5716    1.5065   -0.1953 H         1 <0>         0.0805
     53 H11        -2.5214    2.8538   -0.8667 H         1 <0>         0.0644
     54 H12        -4.2883    0.0557   -3.6409 H         1 <0>         0.1230
     55 H13        -2.0834   -1.1220   -3.3025 H         1 <0>         0.0832
     56 H14        -2.9078   -2.2525   -2.2023 H         1 <0>         0.0703
     57 H15        -3.7374   -1.7566   -5.0955 H         1 <0>         0.0731
     58 H16        -2.1650   -4.0592   -3.8533 H         1 <0>         0.0546
     59 H17        -2.7326   -3.9798   -5.5385 H         1 <0>         0.0567
     60 H18        -1.5057   -2.8286   -4.9576 H         1 <0>         0.0572
     61 H19        -5.5774   -2.5244   -3.6858 H         1 <0>         0.0575
     62 H20        -5.0297   -3.8823   -4.6980 H         1 <0>         0.0503
     63 H21        -4.5547   -3.8014   -2.9845 H         1 <0>         0.0513
     64 H22        -5.2948   -1.7173   -1.4768 H         1 <0>         0.4050
     65 H23        -7.6652   -2.6275   -2.3062 H         1 <0>         0.1292
     66 H24        -7.1726   -1.0919   -0.3797 H         1 <0>         0.1285
     67 H25        -8.2008    0.1428   -1.1455 H         1 <0>         0.1071
     68 H26       -10.9158   -3.6876    1.1447 H         1 <0>         0.4664
     69 H27        -8.4280   -3.3454    0.5126 H         1 <0>         0.2230
     70 H28       -12.3740   -1.7946    0.2335 H         1 <0>         0.2604
     71 H29        -8.7780   -0.4546   -3.9085 H         1 <0>         0.4212
     72 H30       -11.4608   -0.6618   -4.0592 H         1 <0>         0.1212
     73 H31        -9.7153   -1.0372   -5.8267 H         1 <0>         0.0914
     74 H32       -10.2791   -2.7187   -5.9780 H         1 <0>         0.0843
     75 H33       -12.4609   -3.2172   -6.9243 H         1 <0>         0.1088
     76 H34       -14.2502   -2.4803   -8.4470 H         1 <0>         0.1173
     77 H35       -14.4635   -0.0987   -9.0347 H         1 <0>         0.1195
     78 H36       -12.8881    1.5462   -8.0989 H         1 <0>         0.1198
     79 H37       -11.1040    0.8105   -6.5696 H         1 <0>         0.1153
     80 H38       -11.9622   -3.5249   -3.7776 H         1 <0>         0.4127
     81 H39       -15.4747   -3.2505   -6.7303 H         1 <0>         0.0591
     82 H40       -16.7669   -2.0733   -6.3944 H         1 <0>         0.0693
     83 H41       -15.0610   -1.5757   -6.2918 H         1 <0>         0.1015
     84 H42       -16.7002   -4.2146   -3.3499 H         1 <0>         0.0648
     85 H43       -17.7241   -3.6144   -4.6764 H         1 <0>         0.0834
     86 H44       -16.4319   -4.7915   -5.0123 H         1 <0>         0.0677
     87 H45       -15.4376   -0.7659   -3.9584 H         1 <0>         0.0865
     88 H46       -17.1435   -1.2635   -4.0610 H         1 <0>         0.0725
     89 H47       -16.1195   -1.8637   -2.7345 H         1 <0>         0.0549
     90 H48        -2.4614   -1.0313   -0.7035 H         1 <0>         0.3788
     91 H49        -3.3955    2.5930   -3.1337 H         1 <0>         0.3756
     92 H50       -10.7747   -0.2853   -0.9502 H         1 <0>         0.4587
@<TRIPOS>BOND
     1    1    2 1
     2    1   45 1
     3    1   46 1
     4    1   47 1
     5    2    3 1
     6    2    4 1
     7    2   48 1
     8    3   49 1
     9    3   50 1
    10    3   51 1
    11    4    5 1
    12    4   52 1
    13    4   53 1
    14    5    6 1
    15    5    7 1
    16    5   44 1
    17    7    8 1
    18    7    9 1
    19    7   43 1
    20    9   10 1
    21    9   14 1
    22    9   54 1
    23   10   11 1
    24   10   55 1
    25   10   56 1
    26   11   12 1
    27   11   13 1
    28   11   57 1
    29   12   58 1
    30   12   59 1
    31   12   60 1
    32   13   61 1
    33   13   62 1
    34   13   63 1
    35   14   15 am
    36   14   64 1
    37   15   16 2
    38   15   17 1
    39   17   18 1
    40   17   24 1
    41   17   65 1
    42   18   66 1
    43   18   67 1
    44   18   19 1
    45   19   20 2
    46   19   23 1
    47   20   21 1
    48   20   69 1
    49   21   22 1
    50   21   68 1
    51   22   70 1
    52   22   23 2
    53   23   92 1
    54   24   25 am
    55   24   71 1
    56   25   26 2
    57   25   27 1
    58   27   28 1
    59   27   35 1
    60   27   72 1
    61   28   29 1
    62   28   73 1
    63   28   74 1
    64   29   34 ar
    65   29   30 ar
    66   30   31 ar
    67   30   75 1
    68   31   32 ar
    69   31   76 1
    70   32   33 ar
    71   32   77 1
    72   33   34 ar
    73   33   78 1
    74   34   79 1
    75   35   36 am
    76   35   80 1
    77   36   37 2
    78   36   38 1
    79   38   39 1
    80   39   40 1
    81   39   41 1
    82   39   42 1
    83   40   81 1
    84   40   82 1
    85   40   83 1
    86   41   84 1
    87   41   85 1
    88   41   86 1
    89   42   87 1
    90   42   88 1
    91   42   89 1
    92   43   90 1
    93   44   91 1
@<TRIPOS>MOLECULE
CHEMBL308103__22
   91    92     0     0     0
SMALL
USER_CHARGES

@<TRIPOS>ATOM
      1 C1          0.0087    3.7347   -0.5200 C.3       1 <0>        -0.1492
      2 C2         -0.4917    2.7528   -1.5814 C.3       1 <0>        -0.0943
      3 C3          0.5732    1.6823   -1.8282 C.3       1 <0>        -0.1507
      4 C4         -1.7802    2.0875   -1.0936 C.3       1 <0>        -0.1431
      5 C5         -2.3212    1.1621   -2.1853 C.3       1 <0>         0.0749
      6 H1         -1.5466    0.4530   -2.4773 H         1 <0>         0.1072
      7 C6         -3.5357    0.3996   -1.6519 C.3       1 <0>         0.0674
      8 H2         -4.3103    1.1087   -1.3599 H         1 <0>         0.1030
      9 C7         -4.0767   -0.5258   -2.7436 C.3       1 <0>         0.1118
     10 C8         -3.0344   -1.5988   -3.0652 C.3       1 <0>        -0.1321
     11 C9         -3.5049   -2.4233   -4.2651 C.3       1 <0>        -0.0881
     12 C10        -2.3974   -3.3924   -4.6837 C.3       1 <0>        -0.1491
     13 C11        -4.7567   -3.2147   -3.8807 C.3       1 <0>        -0.1572
     14 N1         -5.3081   -1.1662   -2.2749 N.am      1 <0>        -0.7116
     15 C12        -6.4596   -0.9895   -2.9527 C.2       1 <0>         0.5189
     16 O1         -6.4581   -0.3834   -4.0031 O.2       1 <0>        -0.5265
     17 C13        -7.7490   -1.5453   -2.4053 C.3       1 <0>         0.1324
     18 C14        -8.0290   -0.9277   -1.0337 C.3       1 <0>        -0.0489
     19 C15        -9.2512   -1.5726   -0.4325 C.2       1 <0>        -0.0191
     20 C16        -9.2886   -2.7176    0.2753 C.2       1 <0>         0.0003
     21 N2        -10.5620   -2.9446    0.6302 N.2       1 <0>        -0.4854
     22 C17       -11.3151   -1.9837    0.1691 C.2       1 <0>         0.1948
     23 N3        -10.5357   -1.1039   -0.4958 N.pl3     1 <0>        -0.5632
     24 N4         -8.8471   -1.2223   -3.3196 N.am      1 <0>        -0.7101
     25 C18        -9.9534   -1.9917   -3.3426 C.2       1 <0>         0.5087
     26 O2        -10.0398   -2.9516   -2.6063 O.2       1 <0>        -0.4988
     27 C19       -11.0830   -1.6595   -4.2831 C.3       1 <0>         0.1596
     28 C20       -10.5744   -1.7003   -5.7255 C.3       1 <0>        -0.0921
     29 C21       -11.6696   -1.2493   -6.6573 C.ar      1 <0>        -0.0663
     30 C22       -12.5546   -2.1726   -7.1819 C.ar      1 <0>        -0.1076
     31 C23       -13.5592   -1.7589   -8.0366 C.ar      1 <0>        -0.1088
     32 C24       -13.6791   -0.4218   -8.3664 C.ar      1 <0>        -0.1195
     33 C25       -12.7946    0.5016   -7.8410 C.ar      1 <0>        -0.1112
     34 C26       -11.7927    0.0885   -6.9830 C.ar      1 <0>        -0.1038
     35 N5        -12.1604   -2.6382   -4.1173 N.am      1 <0>        -0.6960
     36 C27       -13.4271   -2.3066   -4.4368 C.2       1 <0>         0.6549
     37 O3        -13.6755   -1.1959   -4.8624 O.2       1 <0>        -0.5481
     38 O4        -14.4173   -3.2061   -4.2845 O.3       1 <0>        -0.3570
     39 C28       -15.7355   -2.7867   -4.6428 C.3       1 <0>         0.1382
     40 C29       -15.7614   -2.3933   -6.1211 C.3       1 <0>        -0.1924
     41 C30       -16.7186   -3.9343   -4.4031 C.3       1 <0>        -0.1420
     42 C31       -16.1380   -1.5834   -3.7877 C.3       1 <0>        -0.1844
     43 O5         -3.1492   -0.3777   -0.5168 O.3       1 <0>        -0.5497
     44 O6         -2.7077    1.9394   -3.3204 O.3       1 <0>        -0.5499
     45 H3          0.9705    4.1443   -0.8286 H         1 <0>         0.0554
     46 H4         -0.7116    4.5449   -0.4063 H         1 <0>         0.0529
     47 H5          0.1235    3.2145    0.4309 H         1 <0>         0.0540
     48 H6         -0.6888    3.2899   -2.5091 H         1 <0>         0.0756
     49 H7          0.7703    1.1452   -0.9004 H         1 <0>         0.0539
     50 H8          0.2168    0.9828   -2.5843 H         1 <0>         0.0549
     51 H9          1.4912    2.1563   -2.1756 H         1 <0>         0.0551
     52 H10        -1.5716    1.5065   -0.1953 H         1 <0>         0.0807
     53 H11        -2.5214    2.8538   -0.8667 H         1 <0>         0.0648
     54 H12        -4.2883    0.0557   -3.6409 H         1 <0>         0.1203
     55 H13        -2.0834   -1.1220   -3.3025 H         1 <0>         0.0790
     56 H14        -2.9078   -2.2525   -2.2023 H         1 <0>         0.0696
     57 H15        -3.7374   -1.7566   -5.0955 H         1 <0>         0.0716
     58 H16        -2.1650   -4.0592   -3.8533 H         1 <0>         0.0541
     59 H17        -2.7326   -3.9798   -5.5385 H         1 <0>         0.0551
     60 H18        -1.5057   -2.8286   -4.9576 H         1 <0>         0.0543
     61 H19        -5.5774   -2.5244   -3.6858 H         1 <0>         0.0630
     62 H20        -5.0297   -3.8823   -4.6980 H         1 <0>         0.0487
     63 H21        -4.5547   -3.8014   -2.9845 H         1 <0>         0.0521
     64 H22        -5.2948   -1.7173   -1.4768 H         1 <0>         0.4068
     65 H23        -7.6652   -2.6275   -2.3062 H         1 <0>         0.1221
     66 H24        -7.1726   -1.0919   -0.3797 H         1 <0>         0.1024
     67 H25        -8.2008    0.1428   -1.1455 H         1 <0>         0.0788
     68 H26       -10.8311   -0.2922   -0.9372 H         1 <0>         0.4111
     69 H27        -8.4418   -3.3435    0.5152 H         1 <0>         0.1612
     70 H28       -12.3841   -1.9035    0.3006 H         1 <0>         0.1989
     71 H29        -8.7780   -0.4546   -3.9085 H         1 <0>         0.4111
     72 H30       -11.4608   -0.6618   -4.0592 H         1 <0>         0.1156
     73 H31        -9.7153   -1.0372   -5.8267 H         1 <0>         0.0903
     74 H32       -10.2791   -2.7187   -5.9780 H         1 <0>         0.0826
     75 H33       -12.4609   -3.2172   -6.9243 H         1 <0>         0.1094
     76 H34       -14.2502   -2.4803   -8.4470 H         1 <0>         0.1151
     77 H35       -14.4635   -0.0987   -9.0347 H         1 <0>         0.1162
     78 H36       -12.8881    1.5462   -8.0989 H         1 <0>         0.1170
     79 H37       -11.1040    0.8105   -6.5696 H         1 <0>         0.1152
     80 H38       -11.9622   -3.5249   -3.7776 H         1 <0>         0.4145
     81 H39       -15.4747   -3.2505   -6.7303 H         1 <0>         0.0569
     82 H40       -16.7669   -2.0733   -6.3944 H         1 <0>         0.0652
     83 H41       -15.0610   -1.5757   -6.2918 H         1 <0>         0.1021
     84 H42       -16.7002   -4.2146   -3.3499 H         1 <0>         0.0661
     85 H43       -17.7241   -3.6144   -4.6764 H         1 <0>         0.0797
     86 H44       -16.4319   -4.7915   -5.0123 H         1 <0>         0.0659
     87 H45       -15.4376   -0.7659   -3.9584 H         1 <0>         0.0874
     88 H46       -17.1435   -1.2635   -4.0610 H         1 <0>         0.0682
     89 H47       -16.1195   -1.8637   -2.7345 H         1 <0>         0.0572
     90 H48        -2.4614   -1.0313   -0.7035 H         1 <0>         0.3760
     91 H49        -3.3955    2.5930   -3.1337 H         1 <0>         0.3759
@<TRIPOS>BOND
     1    1    2 1
     2    1   45 1
     3    1   46 1
     4    1   47 1
     5    2    3 1
     6    2    4 1
     7    2   48 1
     8    3   49 1
     9    3   50 1
    10    3   51 1
    11    4    5 1
    12    4   52 1
    13    4   53 1
    14    5    6 1
    15    5    7 1
    16    5   44 1
    17    7    8 1
    18    7    9 1
    19    7   43 1
    20    9   10 1
    21    9   14 1
    22    9   54 1
    23   10   11 1
    24   10   55 1
    25   10   56 1
    26   11   12 1
    27   11   13 1
    28   11   57 1
    29   12   58 1
    30   12   59 1
    31   12   60 1
    32   13   61 1
    33   13   62 1
    34   13   63 1
    35   14   15 am
    36   14   64 1
    37   15   16 2
    38   15   17 1
    39   17   18 1
    40   17   24 1
    41   17   65 1
    42   18   66 1
    43   18   67 1
    44   18   19 1
    45   19   20 2
    46   19   23 1
    47   20   21 1
    48   20   69 1
    49   21   22 2
    50   22   70 1
    51   22   23 1
    52   23   68 1
    53   24   25 am
    54   24   71 1
    55   25   26 2
    56   25   27 1
    57   27   28 1
    58   27   35 1
    59   27   72 1
    60   28   29 1
    61   28   73 1
    62   28   74 1
    63   29   34 ar
    64   29   30 ar
    65   30   31 ar
    66   30   75 1
    67   31   32 ar
    68   31   76 1
    69   32   33 ar
    70   32   77 1
    71   33   34 ar
    72   33   78 1
    73   34   79 1
    74   35   36 am
    75   35   80 1
    76   36   37 2
    77   36   38 1
    78   38   39 1
    79   39   40 1
    80   39   41 1
    81   39   42 1
    82   40   81 1
    83   40   82 1
    84   40   83 1
    85   41   84 1
    86   41   85 1
    87   41   86 1
    88   42   87 1
    89   42   88 1
    90   42   89 1
    91   43   90 1
    92   44   91 1
@<TRIPOS>MOLECULE
CHEMBL308103__23
   91    92     0     0     0
SMALL
USER_CHARGES

@<TRIPOS>ATOM
      1 C1          1.9500    0.9553   -1.0610 C.3       1 <0>        -0.1489
      2 C2          1.3988   -0.3150   -0.4103 C.3       1 <0>        -0.0948
      3 C3          1.6033   -0.2421    1.1043 C.3       1 <0>        -0.1500
      4 C4         -0.0949   -0.4387   -0.7178 C.3       1 <0>        -0.1432
      5 C5         -0.6191   -1.7693   -0.1740 C.3       1 <0>         0.0755
      6 H1         -0.3863   -1.8447    0.8882 H         1 <0>         0.1058
      7 C6         -2.1349   -1.8387   -0.3702 C.3       1 <0>         0.0673
      8 H2         -2.3676   -1.7633   -1.4323 H         1 <0>         0.1035
      9 C7         -2.6591   -3.1693    0.1736 C.3       1 <0>         0.1118
     10 C8         -2.4440   -3.2218    1.6875 C.3       1 <0>        -0.1309
     11 C9         -2.9175   -4.5745    2.2232 C.3       1 <0>        -0.0890
     12 C10        -2.5919   -4.6745    3.7148 C.3       1 <0>        -0.1487
     13 C11        -4.4287   -4.7023    2.0213 C.3       1 <0>        -0.1506
     14 N1         -4.0893   -3.2877   -0.1209 N.am      1 <0>        -0.7130
     15 C12        -4.5332   -4.2793   -0.9185 C.2       1 <0>         0.5165
     16 O1         -3.7610   -5.1202   -1.3276 O.2       1 <0>        -0.5283
     17 C13        -5.9892   -4.3431   -1.3019 C.3       1 <0>         0.1422
     18 C14        -6.3761   -3.0657   -2.0500 C.3       1 <0>        -0.0394
     19 C15        -7.8576   -3.0741   -2.3256 C.2       1 <0>         0.0021
     20 C16        -8.7331   -2.1125   -1.9757 C.2       1 <0>        -0.0519
     21 N2         -9.9638   -2.5178   -2.4169 N.pl3     1 <0>        -0.5706
     22 C17        -9.7975   -3.7138   -3.0215 C.2       1 <0>         0.1905
     23 N3         -8.5345   -4.0378   -2.9675 N.2       1 <0>        -0.4516
     24 N4         -6.2160   -5.5034   -2.1671 N.am      1 <0>        -0.7088
     25 C18        -7.4388   -6.0663   -2.2328 C.2       1 <0>         0.5457
     26 O2         -8.3514   -5.6123   -1.5756 O.2       1 <0>        -0.5107
     27 C19        -7.6720   -7.2598   -3.1228 C.3       1 <0>         0.1660
     28 C20        -6.7596   -8.4077   -2.6860 C.3       1 <0>        -0.0948
     29 C21        -6.9029   -9.5577   -3.6494 C.ar      1 <0>        -0.0626
     30 C22        -7.8580  -10.5317   -3.4258 C.ar      1 <0>        -0.1087
     31 C23        -7.9895  -11.5866   -4.3095 C.ar      1 <0>        -0.1099
     32 C24        -7.1661  -11.6672   -5.4170 C.ar      1 <0>        -0.1219
     33 C25        -6.2116  -10.6927   -5.6410 C.ar      1 <0>        -0.1115
     34 C26        -6.0830   -9.6356   -4.7596 C.ar      1 <0>        -0.1034
     35 N5         -9.0712   -7.6812   -3.0180 N.am      1 <0>        -0.6904
     36 C27        -9.6497   -8.3552   -4.0316 C.2       1 <0>         0.6537
     37 O3         -9.0109   -8.6133   -5.0324 O.2       1 <0>        -0.5482
     38 O4        -10.9356   -8.7424   -3.9353 O.3       1 <0>        -0.3609
     39 C28       -11.4843   -9.4528   -5.0472 C.3       1 <0>         0.1388
     40 C29       -10.6844  -10.7366   -5.2770 C.3       1 <0>        -0.1923
     41 C30       -12.9441   -9.8065   -4.7563 C.3       1 <0>        -0.1412
     42 C31       -11.4117   -8.5757   -6.2987 C.3       1 <0>        -0.1843
     43 O5         -2.7559   -0.7597    0.3314 O.3       1 <0>        -0.5504
     44 O6          0.0019   -2.8483   -0.8755 O.3       1 <0>        -0.5502
     45 H3          3.0141    1.0434   -0.8420 H         1 <0>         0.0549
     46 H4          1.8043    0.9033   -2.1400 H         1 <0>         0.0532
     47 H5          1.4243    1.8240   -0.6648 H         1 <0>         0.0536
     48 H6          1.9244   -1.1838   -0.8065 H         1 <0>         0.0763
     49 H7          1.0777    0.6266    1.5005 H         1 <0>         0.0535
     50 H8          1.2106   -1.1471    1.5679 H         1 <0>         0.0545
     51 H9          2.6675   -0.1540    1.3233 H         1 <0>         0.0548
     52 H10        -0.6324    0.3838   -0.2457 H         1 <0>         0.0800
     53 H11        -0.2481   -0.4012   -1.7963 H         1 <0>         0.0650
     54 H12        -2.1216   -3.9917   -0.2985 H         1 <0>         0.1201
     55 H13        -1.3843   -3.0942    1.9085 H         1 <0>         0.0789
     56 H14        -3.0131   -2.4232    2.1632 H         1 <0>         0.0678
     57 H15        -2.4101   -5.3758    1.6861 H         1 <0>         0.0717
     58 H16        -3.0993   -3.8731    4.2520 H         1 <0>         0.0536
     59 H17        -2.9293   -5.6381    4.0965 H         1 <0>         0.0551
     60 H18        -1.5153   -4.5834    3.8587 H         1 <0>         0.0542
     61 H19        -4.6379   -4.9257    0.9752 H         1 <0>         0.0594
     62 H20        -4.8122   -5.5072    2.6484 H         1 <0>         0.0486
     63 H21        -4.9126   -3.7652    2.2966 H         1 <0>         0.0518
     64 H22        -4.7167   -2.6525    0.2582 H         1 <0>         0.4049
     65 H23        -6.5981   -4.4359   -0.4026 H         1 <0>         0.1126
     66 H24        -6.1247   -2.1976   -1.4407 H         1 <0>         0.0861
     67 H25        -5.8314   -3.0178   -2.9930 H         1 <0>         0.0811
     68 H26       -10.7994   -2.0359   -2.3144 H         1 <0>         0.4174
     69 H27        -8.5076   -1.1976   -1.4480 H         1 <0>         0.1695
     70 H28       -10.5794   -4.3026   -3.4778 H         1 <0>         0.1959
     71 H29        -5.4860   -5.8664   -2.6927 H         1 <0>         0.4070
     72 H30        -7.4497   -6.9918   -4.1557 H         1 <0>         0.1169
     73 H31        -5.7244   -8.0665   -2.6790 H         1 <0>         0.0895
     74 H32        -7.0411   -8.7350   -1.6852 H         1 <0>         0.0795
     75 H33        -8.5013  -10.4687   -2.5606 H         1 <0>         0.1086
     76 H34        -8.7352  -12.3479   -4.1344 H         1 <0>         0.1135
     77 H35        -7.2684  -12.4918   -6.1070 H         1 <0>         0.1147
     78 H36        -5.5681  -10.7559   -6.5061 H         1 <0>         0.1161
     79 H37        -5.3398   -8.8723   -4.9367 H         1 <0>         0.1160
     80 H38        -9.5812   -7.4751   -2.2190 H         1 <0>         0.4107
     81 H39       -10.7361  -11.3615   -4.3854 H         1 <0>         0.0562
     82 H40       -11.1030  -11.2785   -6.1252 H         1 <0>         0.0638
     83 H41        -9.6444  -10.4846   -5.4843 H         1 <0>         0.1033
     84 H42       -13.5139   -8.8919   -4.5925 H         1 <0>         0.0644
     85 H43       -13.3626  -10.3484   -5.6044 H         1 <0>         0.0786
     86 H44       -12.9958  -10.4314   -3.8646 H         1 <0>         0.0651
     87 H45       -10.3717   -8.3237   -6.5060 H         1 <0>         0.0892
     88 H46       -11.8302   -9.1176   -7.1469 H         1 <0>         0.0666
     89 H47       -11.9816   -7.6611   -6.1350 H         1 <0>         0.0559
     90 H48        -2.5910   -0.7634    1.2842 H         1 <0>         0.3746
     91 H49        -0.1630   -2.8446   -1.8284 H         1 <0>         0.3767
@<TRIPOS>BOND
     1    1    2 1
     2    1   45 1
     3    1   46 1
     4    1   47 1
     5    2    3 1
     6    2    4 1
     7    2   48 1
     8    3   49 1
     9    3   50 1
    10    3   51 1
    11    4    5 1
    12    4   52 1
    13    4   53 1
    14    5    6 1
    15    5    7 1
    16    5   44 1
    17    7    8 1
    18    7    9 1
    19    7   43 1
    20    9   10 1
    21    9   14 1
    22    9   54 1
    23   10   11 1
    24   10   55 1
    25   10   56 1
    26   11   12 1
    27   11   13 1
    28   11   57 1
    29   12   58 1
    30   12   59 1
    31   12   60 1
    32   13   61 1
    33   13   62 1
    34   13   63 1
    35   14   15 am
    36   14   64 1
    37   15   16 2
    38   15   17 1
    39   17   18 1
    40   17   24 1
    41   17   65 1
    42   18   66 1
    43   18   67 1
    44   18   19 1
    45   19   20 2
    46   19   23 1
    47   20   21 1
    48   20   69 1
    49   21   22 1
    50   21   68 1
    51   22   70 1
    52   22   23 2
    53   24   25 am
    54   24   71 1
    55   25   26 2
    56   25   27 1
    57   27   28 1
    58   27   35 1
    59   27   72 1
    60   28   29 1
    61   28   73 1
    62   28   74 1
    63   29   34 ar
    64   29   30 ar
    65   30   31 ar
    66   30   75 1
    67   31   32 ar
    68   31   76 1
    69   32   33 ar
    70   32   77 1
    71   33   34 ar
    72   33   78 1
    73   34   79 1
    74   35   36 am
    75   35   80 1
    76   36   37 2
    77   36   38 1
    78   38   39 1
    79   39   40 1
    80   39   41 1
    81   39   42 1
    82   40   81 1
    83   40   82 1
    84   40   83 1
    85   41   84 1
    86   41   85 1
    87   41   86 1
    88   42   87 1
    89   42   88 1
    90   42   89 1
    91   43   90 1
    92   44   91 1
@<TRIPOS>MOLECULE
CHEMBL424437
   79    83     0     0     0
SMALL
USER_CHARGES

@<TRIPOS>ATOM
      1 C1         -0.0173    1.4248    0.0099 C.3       1 <0>         0.0264
      2 O1          0.0021   -0.0041    0.0020 O.3       1 <0>        -0.3190
      3 C2         -1.2003   -0.6375    0.0101 C.ar      1 <0>         0.1310
      4 C3         -2.3748    0.1012    0.0195 C.ar      1 <0>        -0.2068
      5 C4         -3.5956   -0.5449    0.0272 C.ar      1 <0>        -0.0782
      6 C5         -3.6478   -1.9268    0.0256 C.ar      1 <0>        -0.1573
      7 C6         -2.4790   -2.6650    0.0167 C.ar      1 <0>        -0.0597
      8 C7         -1.2554   -2.0235    0.0032 C.ar      1 <0>        -0.1256
      9 C8          0.0182   -2.8288   -0.0128 C.3       1 <0>         0.1183
     10 O2         -0.2992   -4.2221   -0.0174 O.3       1 <0>        -0.3827
     11 C9          0.8445   -5.0787   -0.0324 C.3       1 <0>         0.0687
     12 C10         0.3879   -6.5390   -0.0361 C.3       1 <0>        -0.1205
     13 C11         1.6124   -7.4562   -0.0522 C.3       1 <0>         0.0636
     14 O3          1.1859   -8.8201   -0.0556 O.3       1 <0>        -0.3096
     15 C12         2.1574   -9.7703   -0.0696 C.ar      1 <0>         0.1473
     16 C13         3.4938   -9.3976   -0.0741 C.ar      1 <0>        -0.2121
     17 C14         4.4794  -10.3654   -0.0878 C.ar      1 <0>        -0.0666
     18 C15         4.1351  -11.7045   -0.0976 C.ar      1 <0>        -0.1446
     19 C16         2.8040  -12.0784   -0.0936 C.ar      1 <0>        -0.0540
     20 C17         1.8146  -11.1145   -0.0737 C.ar      1 <0>        -0.1538
     21 C18         5.2124  -12.7581   -0.1131 C.3       1 <0>        -0.0391
     22 C19         5.0607  -13.6273   -1.3648 C.3       1 <0>        -0.1397
     23 C20         6.1073  -14.7431   -1.3342 C.3       1 <0>        -0.0070
     24 N1          5.9124  -15.5691   -0.1366 N.4       1 <0>        -0.5008
     25 C21         6.1271  -14.7583    1.0680 C.3       1 <0>        -0.0302
     26 C22         5.0812  -13.6430    1.1298 C.3       1 <0>         0.0709
     27 O4          3.7732  -14.2172    1.1709 O.3       1 <0>        -0.3696
     28 C23         3.2907  -14.4701    2.4920 C.3       1 <0>         0.1151
     29 C24         1.9112  -15.0719    2.4162 C.ar      1 <0>        -0.1748
     30 C25         1.3231  -15.2970    1.1875 C.ar      1 <0>        -0.0635
     31 C26         0.0572  -15.8490    1.1198 C.ar      1 <0>        -0.1697
     32 C27        -0.6215  -16.1737    2.2787 C.ar      1 <0>        -0.0691
     33 C28        -0.0397  -15.9501    3.5151 C.ar      1 <0>        -0.1437
     34 C29         1.2336  -15.4055    3.5835 C.ar      1 <0>         0.2274
     35 N2          1.8528  -15.1823    4.8182 N.pl3     1 <0>        -0.7520
     36 C30         1.0425  -15.2508    6.0419 C.3       1 <0>         0.1195
     37 C31         0.1473  -16.4929    5.9426 C.3       1 <0>        -0.1384
     38 C32        -0.8092  -16.3104    4.7584 C.3       1 <0>        -0.0775
     39 H1          1.0053    1.8021    0.0021 H         1 <0>         0.1019
     40 H2         -0.5445    1.7859   -0.8732 H         1 <0>         0.0574
     41 H3         -0.5275    1.7763    0.9067 H         1 <0>         0.0574
     42 H4         -2.3345    1.1804    0.0211 H         1 <0>         0.1308
     43 H5         -4.5101    0.0296    0.0349 H         1 <0>         0.1268
     44 H6         -4.6033   -2.4302    0.0316 H         1 <0>         0.1262
     45 H7         -2.5225   -3.7442    0.0158 H         1 <0>         0.1384
     46 H8          0.5918   -2.5839   -0.9068 H         1 <0>         0.0642
     47 H9          0.6081   -2.5934    0.8731 H         1 <0>         0.0640
     48 H10         1.4351   -4.8805   -0.9268 H         1 <0>         0.0539
     49 H11         1.4515   -4.8901    0.8530 H         1 <0>         0.0536
     50 H12        -0.2028   -6.7372    0.8583 H         1 <0>         0.0852
     51 H13        -0.2191   -6.7277   -0.9215 H         1 <0>         0.0857
     52 H14         2.2030   -7.2580   -0.9466 H         1 <0>         0.0671
     53 H15         2.2193   -7.2675    0.8333 H         1 <0>         0.0663
     54 H16         3.7632   -8.3518   -0.0672 H         1 <0>         0.1303
     55 H17         5.5199  -10.0758   -0.0913 H         1 <0>         0.1239
     56 H18         2.5376  -13.1250   -0.1017 H         1 <0>         0.1420
     57 H19         0.7750  -11.4072   -0.0661 H         1 <0>         0.1323
     58 H20         6.1913  -12.2785   -0.1174 H         1 <0>         0.1052
     59 H21         4.0626  -14.0649   -1.3853 H         1 <0>         0.0983
     60 H22         5.2083  -13.0141   -2.2538 H         1 <0>         0.1143
     61 H23         6.0022  -15.3637   -2.2241 H         1 <0>         0.1351
     62 H24         7.1050  -14.3045   -1.3140 H         1 <0>         0.1302
     63 H25         4.9722  -15.9352   -0.1312 H         1 <0>         0.4333
     64 H26         6.0365  -15.3901    1.9516 H         1 <0>         0.1328
     65 H27         7.1243  -14.3193    1.0370 H         1 <0>         0.1408
     66 H28         5.2434  -13.0411    2.0240 H         1 <0>         0.1100
     67 H29         3.9625  -15.1638    2.9975 H         1 <0>         0.0558
     68 H30         3.2487  -13.5341    3.0489 H         1 <0>         0.0684
     69 H31         1.8509  -15.0419    0.2805 H         1 <0>         0.1231
     70 H32        -0.4024  -16.0264    0.1587 H         1 <0>         0.1211
     71 H33        -1.6105  -16.6036    2.2199 H         1 <0>         0.1237
     72 H34         2.8015  -14.9858    4.8656 H         1 <0>         0.3963
     73 H35         1.6940  -15.3339    6.9119 H         1 <0>         0.0817
     74 H36         0.4250  -14.3565    6.1264 H         1 <0>         0.0632
     75 H37         0.7657  -17.3775    5.7905 H         1 <0>         0.0703
     76 H38        -0.4294  -16.6018    6.8612 H         1 <0>         0.0814
     77 H39        -1.5283  -15.5213    4.9784 H         1 <0>         0.0768
     78 H40        -1.3445  -17.2453    4.5925 H         1 <0>         0.0777
     79 H41         6.5693  -16.3349   -0.1468 H         1 <0>         0.4305
@<TRIPOS>BOND
     1    1    2 1
     2    1   39 1
     3    1   40 1
     4    1   41 1
     5    2    3 1
     6    3    8 ar
     7    3    4 ar
     8    4    5 ar
     9    4   42 1
    10    5    6 ar
    11    5   43 1
    12    6    7 ar
    13    6   44 1
    14    7    8 ar
    15    7   45 1
    16    8    9 1
    17    9   10 1
    18    9   46 1
    19    9   47 1
    20   10   11 1
    21   11   12 1
    22   11   48 1
    23   11   49 1
    24   12   13 1
    25   12   50 1
    26   12   51 1
    27   13   14 1
    28   13   52 1
    29   13   53 1
    30   14   15 1
    31   15   20 ar
    32   15   16 ar
    33   16   17 ar
    34   16   54 1
    35   17   18 ar
    36   17   55 1
    37   18   19 ar
    38   18   21 1
    39   19   20 ar
    40   19   56 1
    41   20   57 1
    42   21   26 1
    43   21   22 1
    44   21   58 1
    45   22   23 1
    46   22   59 1
    47   22   60 1
    48   23   24 1
    49   23   61 1
    50   23   62 1
    51   24   25 1
    52   24   63 1
    53   24   79 1
    54   25   26 1
    55   25   64 1
    56   25   65 1
    57   26   27 1
    58   26   66 1
    59   27   28 1
    60   28   29 1
    61   28   67 1
    62   28   68 1
    63   29   34 ar
    64   29   30 ar
    65   30   31 ar
    66   30   69 1
    67   31   32 ar
    68   31   70 1
    69   32   33 ar
    70   32   71 1
    71   33   38 1
    72   33   34 ar
    73   34   35 1
    74   35   36 1
    75   35   72 1
    76   36   37 1
    77   36   73 1
    78   36   74 1
    79   37   38 1
    80   37   75 1
    81   37   76 1
    82   38   77 1
    83   38   78 1
@<TRIPOS>MOLECULE
CHEMBL424437__1
   79    83     0     0     0
SMALL
USER_CHARGES

@<TRIPOS>ATOM
      1 C1         -0.0173    1.4248    0.0099 C.3       1 <0>         0.0264
      2 O1          0.0021   -0.0041    0.0020 O.3       1 <0>        -0.3189
      3 C2         -1.2003   -0.6375    0.0101 C.ar      1 <0>         0.1311
      4 C3         -2.3748    0.1012    0.0195 C.ar      1 <0>        -0.2068
      5 C4         -3.5956   -0.5449    0.0272 C.ar      1 <0>        -0.0782
      6 C5         -3.6478   -1.9268    0.0256 C.ar      1 <0>        -0.1574
      7 C6         -2.4790   -2.6650    0.0167 C.ar      1 <0>        -0.0598
      8 C7         -1.2554   -2.0235    0.0032 C.ar      1 <0>        -0.1255
      9 C8          0.0182   -2.8288   -0.0128 C.3       1 <0>         0.1183
     10 O2         -0.2992   -4.2221   -0.0174 O.3       1 <0>        -0.3829
     11 C9          0.8445   -5.0787   -0.0324 C.3       1 <0>         0.0685
     12 C10         0.3879   -6.5390   -0.0361 C.3       1 <0>        -0.1202
     13 C11         1.6124   -7.4562   -0.0522 C.3       1 <0>         0.0631
     14 O3          1.1859   -8.8201   -0.0556 O.3       1 <0>        -0.3096
     15 C12         2.1574   -9.7703   -0.0696 C.ar      1 <0>         0.1461
     16 C13         3.4938   -9.3976   -0.0741 C.ar      1 <0>        -0.2033
     17 C14         4.4794  -10.3654   -0.0878 C.ar      1 <0>        -0.0558
     18 C15         4.1351  -11.7045   -0.0976 C.ar      1 <0>        -0.1285
     19 C16         2.8040  -12.0784   -0.0936 C.ar      1 <0>        -0.0781
     20 C17         1.8146  -11.1145   -0.0737 C.ar      1 <0>        -0.1485
     21 C18         5.2124  -12.7581   -0.1131 C.3       1 <0>        -0.0468
     22 C19         5.0607  -13.6273   -1.3648 C.3       1 <0>        -0.1394
     23 C20         6.1073  -14.7431   -1.3342 C.3       1 <0>        -0.0101
     24 N1          5.9124  -15.5691   -0.1366 N.4       1 <0>        -0.4995
     25 C21         6.1271  -14.7583    1.0680 C.3       1 <0>        -0.0388
     26 C22         5.0812  -13.6430    1.1298 C.3       1 <0>         0.0793
     27 O4          5.2938  -12.8539    2.3021 O.3       1 <0>        -0.3415
     28 C23         4.5793  -13.3148    3.4505 C.3       1 <0>         0.1151
     29 C24         4.8759  -12.4140    4.6217 C.ar      1 <0>        -0.1750
     30 C25         5.7247  -11.3363    4.4656 C.ar      1 <0>        -0.0558
     31 C26         5.9960  -10.5109    5.5412 C.ar      1 <0>        -0.1704
     32 C27         5.4215  -10.7632    6.7722 C.ar      1 <0>        -0.0695
     33 C28         4.5702  -11.8426    6.9378 C.ar      1 <0>        -0.1472
     34 C29         4.2902  -12.6651    5.8573 C.ar      1 <0>         0.2259
     35 N2          3.4220  -13.7542    5.9910 N.pl3     1 <0>        -0.7534
     36 C30         3.0404  -14.1971    7.3389 C.3       1 <0>         0.1212
     37 C31         2.7008  -12.9489    8.1640 C.3       1 <0>        -0.1397
     38 C32         3.9656  -12.0922    8.2942 C.3       1 <0>        -0.0756
     39 H1          1.0053    1.8021    0.0021 H         1 <0>         0.1020
     40 H2         -0.5445    1.7859   -0.8732 H         1 <0>         0.0574
     41 H3         -0.5275    1.7763    0.9067 H         1 <0>         0.0574
     42 H4         -2.3345    1.1804    0.0211 H         1 <0>         0.1308
     43 H5         -4.5101    0.0296    0.0349 H         1 <0>         0.1267
     44 H6         -4.6033   -2.4302    0.0316 H         1 <0>         0.1261
     45 H7         -2.5225   -3.7442    0.0158 H         1 <0>         0.1383
     46 H8          0.5918   -2.5839   -0.9068 H         1 <0>         0.0642
     47 H9          0.6081   -2.5934    0.8731 H         1 <0>         0.0642
     48 H10         1.4351   -4.8805   -0.9268 H         1 <0>         0.0540
     49 H11         1.4515   -4.8901    0.8530 H         1 <0>         0.0541
     50 H12        -0.2028   -6.7372    0.8583 H         1 <0>         0.0853
     51 H13        -0.2191   -6.7277   -0.9215 H         1 <0>         0.0855
     52 H14         2.2030   -7.2580   -0.9466 H         1 <0>         0.0676
     53 H15         2.2193   -7.2675    0.8333 H         1 <0>         0.0676
     54 H16         3.7632   -8.3518   -0.0672 H         1 <0>         0.1321
     55 H17         5.5199  -10.0758   -0.0913 H         1 <0>         0.1262
     56 H18         2.5376  -13.1250   -0.1017 H         1 <0>         0.1205
     57 H19         0.7750  -11.4072   -0.0661 H         1 <0>         0.1335
     58 H20         6.1913  -12.2785   -0.1174 H         1 <0>         0.1041
     59 H21         4.0626  -14.0649   -1.3853 H         1 <0>         0.0928
     60 H22         5.2083  -13.0141   -2.2538 H         1 <0>         0.1227
     61 H23         6.0022  -15.3637   -2.2241 H         1 <0>         0.1388
     62 H24         7.1050  -14.3045   -1.3140 H         1 <0>         0.1345
     63 H25         4.9722  -15.9352   -0.1312 H         1 <0>         0.4272
     64 H26         6.0365  -15.3901    1.9516 H         1 <0>         0.1336
     65 H27         7.1243  -14.3193    1.0370 H         1 <0>         0.1418
     66 H28         4.0835  -14.0810    1.1612 H         1 <0>         0.0849
     67 H29         3.5094  -13.3003    3.2428 H         1 <0>         0.0613
     68 H30         4.8897  -14.3325    3.6873 H         1 <0>         0.0567
     69 H31         6.1765  -11.1385    3.5048 H         1 <0>         0.1269
     70 H32         6.6588   -9.6670    5.4189 H         1 <0>         0.1211
     71 H33         5.6378  -10.1158    7.6091 H         1 <0>         0.1235
     72 H34         3.0775  -14.2092    5.2067 H         1 <0>         0.3954
     73 H35         2.1690  -14.8492    7.2803 H         1 <0>         0.0807
     74 H36         3.8711  -14.7304    7.8012 H         1 <0>         0.0617
     75 H37         1.9158  -12.3825    7.6630 H         1 <0>         0.0712
     76 H38         2.3616  -13.2480    9.1558 H         1 <0>         0.0808
     77 H39         4.6952  -12.5985    8.9262 H         1 <0>         0.0755
     78 H40         3.6982  -11.1391    8.7505 H         1 <0>         0.0773
     79 H41         6.5693  -16.3349   -0.1468 H         1 <0>         0.4353
@<TRIPOS>BOND
     1    1    2 1
     2    1   39 1
     3    1   40 1
     4    1   41 1
     5    2    3 1
     6    3    8 ar
     7    3    4 ar
     8    4    5 ar
     9    4   42 1
    10    5    6 ar
    11    5   43 1
    12    6    7 ar
    13    6   44 1
    14    7    8 ar
    15    7   45 1
    16    8    9 1
    17    9   10 1
    18    9   46 1
    19    9   47 1
    20   10   11 1
    21   11   12 1
    22   11   48 1
    23   11   49 1
    24   12   13 1
    25   12   50 1
    26   12   51 1
    27   13   14 1
    28   13   52 1
    29   13   53 1
    30   14   15 1
    31   15   20 ar
    32   15   16 ar
    33   16   17 ar
    34   16   54 1
    35   17   18 ar
    36   17   55 1
    37   18   19 ar
    38   18   21 1
    39   19   20 ar
    40   19   56 1
    41   20   57 1
    42   21   26 1
    43   21   22 1
    44   21   58 1
    45   22   23 1
    46   22   59 1
    47   22   60 1
    48   23   24 1
    49   23   61 1
    50   23   62 1
    51   24   25 1
    52   24   63 1
    53   24   79 1
    54   25   26 1
    55   25   64 1
    56   25   65 1
    57   26   27 1
    58   26   66 1
    59   27   28 1
    60   28   29 1
    61   28   67 1
    62   28   68 1
    63   29   34 ar
    64   29   30 ar
    65   30   31 ar
    66   30   69 1
    67   31   32 ar
    68   31   70 1
    69   32   33 ar
    70   32   71 1
    71   33   38 1
    72   33   34 ar
    73   34   35 1
    74   35   36 1
    75   35   72 1
    76   36   37 1
    77   36   73 1
    78   36   74 1
    79   37   38 1
    80   37   75 1
    81   37   76 1
    82   38   77 1
    83   38   78 1
@<TRIPOS>MOLECULE
CHEMBL424437__2
   79    83     0     0     0
SMALL
USER_CHARGES

@<TRIPOS>ATOM
      1 C1         -0.0173    1.4248    0.0099 C.3       1 <0>         0.0264
      2 O1          0.0021   -0.0041    0.0020 O.3       1 <0>        -0.3189
      3 C2         -1.2003   -0.6375    0.0101 C.ar      1 <0>         0.1311
      4 C3         -2.3748    0.1012    0.0195 C.ar      1 <0>        -0.2068
      5 C4         -3.5956   -0.5449    0.0272 C.ar      1 <0>        -0.0782
      6 C5         -3.6478   -1.9268    0.0256 C.ar      1 <0>        -0.1574
      7 C6         -2.4790   -2.6650    0.0167 C.ar      1 <0>        -0.0598
      8 C7         -1.2554   -2.0235    0.0032 C.ar      1 <0>        -0.1255
      9 C8          0.0182   -2.8288   -0.0128 C.3       1 <0>         0.1183
     10 O2         -0.2992   -4.2221   -0.0174 O.3       1 <0>        -0.3829
     11 C9          0.8445   -5.0787   -0.0324 C.3       1 <0>         0.0685
     12 C10         0.3879   -6.5390   -0.0361 C.3       1 <0>        -0.1202
     13 C11         1.6124   -7.4562   -0.0522 C.3       1 <0>         0.0631
     14 O3          1.1859   -8.8201   -0.0556 O.3       1 <0>        -0.3096
     15 C12         2.1574   -9.7703   -0.0696 C.ar      1 <0>         0.1462
     16 C13         3.4938   -9.3976   -0.0741 C.ar      1 <0>        -0.2034
     17 C14         4.4794  -10.3654   -0.0878 C.ar      1 <0>        -0.0557
     18 C15         4.1351  -11.7045   -0.0976 C.ar      1 <0>        -0.1286
     19 C16         2.8040  -12.0784   -0.0936 C.ar      1 <0>        -0.0778
     20 C17         1.8146  -11.1145   -0.0737 C.ar      1 <0>        -0.1484
     21 C18         5.2124  -12.7581   -0.1131 C.3       1 <0>        -0.0467
     22 C19         5.0751  -13.6492    1.1248 C.3       1 <0>        -0.1395
     23 C20         6.1212  -14.7642    1.0625 C.3       1 <0>        -0.0101
     24 N1          5.9123  -15.5690   -0.1471 N.4       1 <0>        -0.4995
     25 C21         6.1131  -14.7371   -1.3397 C.3       1 <0>        -0.0388
     26 C22         5.0667  -13.6211   -1.3698 C.3       1 <0>         0.0791
     27 O4          5.2659  -12.8114   -2.5303 O.3       1 <0>        -0.3415
     28 C23         4.5381  -13.2522   -3.6784 C.3       1 <0>         0.1151
     29 C24         4.8212  -12.3308   -4.8369 C.ar      1 <0>        -0.1749
     30 C25         5.6806  -11.2625   -4.6748 C.ar      1 <0>        -0.0559
     31 C26         5.9391  -10.4180   -5.7386 C.ar      1 <0>        -0.1704
     32 C27         5.3377  -10.6393   -6.9627 C.ar      1 <0>        -0.0695
     33 C28         4.4734  -11.7074   -7.1336 C.ar      1 <0>        -0.1471
     34 C29         4.2212  -12.5603   -6.0699 C.ar      1 <0>         0.2259
     35 N2          3.3642  -13.6565   -6.2171 N.pl3     1 <0>        -0.7532
     36 C30         2.5074  -13.7333   -7.4082 C.3       1 <0>         0.1206
     37 C31         3.3652  -13.3698   -8.6272 C.3       1 <0>        -0.1386
     38 C32         3.8305  -11.9164   -8.4792 C.3       1 <0>        -0.0760
     39 H1          1.0053    1.8021    0.0021 H         1 <0>         0.1020
     40 H2         -0.5445    1.7859   -0.8732 H         1 <0>         0.0574
     41 H3         -0.5275    1.7763    0.9067 H         1 <0>         0.0574
     42 H4         -2.3345    1.1804    0.0211 H         1 <0>         0.1308
     43 H5         -4.5101    0.0296    0.0349 H         1 <0>         0.1267
     44 H6         -4.6033   -2.4302    0.0316 H         1 <0>         0.1261
     45 H7         -2.5225   -3.7442    0.0158 H         1 <0>         0.1383
     46 H8          0.5918   -2.5839   -0.9068 H         1 <0>         0.0642
     47 H9          0.6081   -2.5934    0.8731 H         1 <0>         0.0642
     48 H10         1.4351   -4.8805   -0.9268 H         1 <0>         0.0541
     49 H11         1.4515   -4.8901    0.8530 H         1 <0>         0.0540
     50 H12        -0.2028   -6.7372    0.8583 H         1 <0>         0.0854
     51 H13        -0.2191   -6.7277   -0.9215 H         1 <0>         0.0853
     52 H14         2.2030   -7.2580   -0.9466 H         1 <0>         0.0676
     53 H15         2.2193   -7.2675    0.8333 H         1 <0>         0.0675
     54 H16         3.7632   -8.3518   -0.0672 H         1 <0>         0.1320
     55 H17         5.5199  -10.0758   -0.0913 H         1 <0>         0.1262
     56 H18         2.5376  -13.1250   -0.1017 H         1 <0>         0.1204
     57 H19         0.7750  -11.4072   -0.0661 H         1 <0>         0.1335
     58 H20         6.1913  -12.2786   -0.1117 H         1 <0>         0.1041
     59 H21         5.2330  -13.0517    2.0227 H         1 <0>         0.1227
     60 H22         4.0773  -14.0872    1.1491 H         1 <0>         0.0928
     61 H23         7.1186  -14.3251    1.0385 H         1 <0>         0.1345
     62 H24         6.0263  -15.4004    1.9425 H         1 <0>         0.1388
     63 H25         6.5692  -16.3348   -0.1580 H         1 <0>         0.4352
     64 H26         7.1107  -14.2987   -1.3125 H         1 <0>         0.1418
     65 H27         6.0123  -15.3533   -2.2331 H         1 <0>         0.1334
     66 H28         4.0687  -14.0585   -1.3973 H         1 <0>         0.0851
     67 H29         4.8456  -14.2655   -3.9366 H         1 <0>         0.0536
     68 H30         3.4706  -13.2414   -3.4581 H         1 <0>         0.0643
     69 H31         6.1502  -11.0865   -3.7182 H         1 <0>         0.1268
     70 H32         6.6125   -9.5831   -5.6123 H         1 <0>         0.1211
     71 H33         5.5423   -9.9758   -7.7899 H         1 <0>         0.1235
     72 H34         3.3365  -14.3544   -5.5440 H         1 <0>         0.3948
     73 H35         2.1190  -14.7458   -7.5188 H         1 <0>         0.0807
     74 H36         1.6812  -13.0285   -7.3147 H         1 <0>         0.0624
     75 H37         4.2274  -14.0347   -8.6784 H         1 <0>         0.0705
     76 H38         2.7704  -13.4695   -9.5351 H         1 <0>         0.0808
     77 H39         2.9812  -11.2410   -8.5816 H         1 <0>         0.0758
     78 H40         4.5562  -11.6989   -9.2629 H         1 <0>         0.0773
     79 H41         4.9721  -15.9351   -0.1481 H         1 <0>         0.4273
@<TRIPOS>BOND
     1    1    2 1
     2    1   39 1
     3    1   40 1
     4    1   41 1
     5    2    3 1
     6    3    8 ar
     7    3    4 ar
     8    4    5 ar
     9    4   42 1
    10    5    6 ar
    11    5   43 1
    12    6    7 ar
    13    6   44 1
    14    7    8 ar
    15    7   45 1
    16    8    9 1
    17    9   10 1
    18    9   46 1
    19    9   47 1
    20   10   11 1
    21   11   12 1
    22   11   48 1
    23   11   49 1
    24   12   13 1
    25   12   50 1
    26   12   51 1
    27   13   14 1
    28   13   52 1
    29   13   53 1
    30   14   15 1
    31   15   20 ar
    32   15   16 ar
    33   16   17 ar
    34   16   54 1
    35   17   18 ar
    36   17   55 1
    37   18   19 ar
    38   18   21 1
    39   19   20 ar
    40   19   56 1
    41   20   57 1
    42   21   26 1
    43   21   22 1
    44   21   58 1
    45   22   23 1
    46   22   59 1
    47   22   60 1
    48   23   24 1
    49   23   61 1
    50   23   62 1
    51   24   25 1
    52   24   63 1
    53   24   79 1
    54   25   26 1
    55   25   64 1
    56   25   65 1
    57   26   27 1
    58   26   66 1
    59   27   28 1
    60   28   29 1
    61   28   67 1
    62   28   68 1
    63   29   34 ar
    64   29   30 ar
    65   30   31 ar
    66   30   69 1
    67   31   32 ar
    68   31   70 1
    69   32   33 ar
    70   32   71 1
    71   33   38 1
    72   33   34 ar
    73   34   35 1
    74   35   36 1
    75   35   72 1
    76   36   37 1
    77   36   73 1
    78   36   74 1
    79   37   38 1
    80   37   75 1
    81   37   76 1
    82   38   77 1
    83   38   78 1
@<TRIPOS>MOLECULE
CHEMBL424437__3
   79    83     0     0     0
SMALL
USER_CHARGES

@<TRIPOS>ATOM
      1 C1         -0.0173    1.4248    0.0099 C.3       1 <0>         0.0264
      2 O1          0.0021   -0.0041    0.0020 O.3       1 <0>        -0.3190
      3 C2         -1.2003   -0.6375    0.0101 C.ar      1 <0>         0.1310
      4 C3         -2.3748    0.1012    0.0195 C.ar      1 <0>        -0.2068
      5 C4         -3.5956   -0.5449    0.0272 C.ar      1 <0>        -0.0782
      6 C5         -3.6478   -1.9268    0.0256 C.ar      1 <0>        -0.1573
      7 C6         -2.4790   -2.6650    0.0167 C.ar      1 <0>        -0.0597
      8 C7         -1.2554   -2.0235    0.0032 C.ar      1 <0>        -0.1256
      9 C8          0.0182   -2.8288   -0.0128 C.3       1 <0>         0.1183
     10 O2         -0.2992   -4.2221   -0.0174 O.3       1 <0>        -0.3827
     11 C9          0.8445   -5.0787   -0.0324 C.3       1 <0>         0.0687
     12 C10         0.3879   -6.5390   -0.0361 C.3       1 <0>        -0.1205
     13 C11         1.6124   -7.4562   -0.0522 C.3       1 <0>         0.0636
     14 O3          1.1859   -8.8201   -0.0556 O.3       1 <0>        -0.3096
     15 C12         2.1574   -9.7703   -0.0696 C.ar      1 <0>         0.1473
     16 C13         3.4938   -9.3976   -0.0741 C.ar      1 <0>        -0.2120
     17 C14         4.4794  -10.3654   -0.0878 C.ar      1 <0>        -0.0666
     18 C15         4.1351  -11.7045   -0.0976 C.ar      1 <0>        -0.1445
     19 C16         2.8040  -12.0784   -0.0936 C.ar      1 <0>        -0.0543
     20 C17         1.8146  -11.1145   -0.0737 C.ar      1 <0>        -0.1540
     21 C18         5.2124  -12.7581   -0.1131 C.3       1 <0>        -0.0392
     22 C19         5.0751  -13.6492    1.1248 C.3       1 <0>        -0.1397
     23 C20         6.1212  -14.7642    1.0625 C.3       1 <0>        -0.0070
     24 N1          5.9123  -15.5690   -0.1471 N.4       1 <0>        -0.5007
     25 C21         6.1131  -14.7371   -1.3397 C.3       1 <0>        -0.0301
     26 C22         5.0667  -13.6211   -1.3698 C.3       1 <0>         0.0710
     27 O4          3.7583  -14.1945   -1.4058 O.3       1 <0>        -0.3696
     28 C23         3.2605  -14.4243   -2.7254 C.3       1 <0>         0.1150
     29 C24         1.8819  -15.0274   -2.6443 C.ar      1 <0>        -0.1750
     30 C25         1.3034  -15.2637   -1.4131 C.ar      1 <0>        -0.0634
     31 C26         0.0386  -15.8174   -1.3405 C.ar      1 <0>        -0.1697
     32 C27        -0.6469  -16.1369   -2.4969 C.ar      1 <0>        -0.0690
     33 C28        -0.0737  -15.9046   -3.7356 C.ar      1 <0>        -0.1438
     34 C29         1.1908  -15.3405   -3.8094 C.ar      1 <0>         0.2275
     35 N2          1.7890  -15.0803   -5.0472 N.pl3     1 <0>        -0.7523
     36 C30         1.2033  -15.6724   -6.2576 C.3       1 <0>         0.1204
     37 C31        -0.3176  -15.4851   -6.1825 C.3       1 <0>        -0.1401
     38 C32        -0.8459  -16.2697   -4.9758 C.3       1 <0>        -0.0769
     39 H1          1.0053    1.8021    0.0021 H         1 <0>         0.1019
     40 H2         -0.5445    1.7859   -0.8732 H         1 <0>         0.0573
     41 H3         -0.5275    1.7763    0.9067 H         1 <0>         0.0575
     42 H4         -2.3345    1.1804    0.0211 H         1 <0>         0.1308
     43 H5         -4.5101    0.0296    0.0349 H         1 <0>         0.1268
     44 H6         -4.6033   -2.4302    0.0316 H         1 <0>         0.1262
     45 H7         -2.5225   -3.7442    0.0158 H         1 <0>         0.1383
     46 H8          0.5918   -2.5839   -0.9068 H         1 <0>         0.0640
     47 H9          0.6081   -2.5934    0.8731 H         1 <0>         0.0642
     48 H10         1.4351   -4.8805   -0.9268 H         1 <0>         0.0535
     49 H11         1.4515   -4.8901    0.8530 H         1 <0>         0.0540
     50 H12        -0.2028   -6.7372    0.8583 H         1 <0>         0.0857
     51 H13        -0.2191   -6.7277   -0.9215 H         1 <0>         0.0852
     52 H14         2.2030   -7.2580   -0.9466 H         1 <0>         0.0663
     53 H15         2.2193   -7.2675    0.8333 H         1 <0>         0.0671
     54 H16         3.7632   -8.3518   -0.0672 H         1 <0>         0.1303
     55 H17         5.5199  -10.0758   -0.0913 H         1 <0>         0.1239
     56 H18         2.5376  -13.1250   -0.1017 H         1 <0>         0.1421
     57 H19         0.7750  -11.4072   -0.0661 H         1 <0>         0.1323
     58 H20         6.1913  -12.2786   -0.1117 H         1 <0>         0.1052
     59 H21         5.2330  -13.0517    2.0227 H         1 <0>         0.1142
     60 H22         4.0773  -14.0872    1.1491 H         1 <0>         0.0983
     61 H23         7.1186  -14.3251    1.0385 H         1 <0>         0.1302
     62 H24         6.0263  -15.4004    1.9425 H         1 <0>         0.1351
     63 H25         6.5692  -16.3348   -0.1580 H         1 <0>         0.4305
     64 H26         7.1107  -14.2987   -1.3125 H         1 <0>         0.1408
     65 H27         6.0123  -15.3533   -2.2331 H         1 <0>         0.1330
     66 H28         5.2186  -13.0035   -2.2550 H         1 <0>         0.1098
     67 H29         3.2122  -13.4786   -3.2653 H         1 <0>         0.0654
     68 H30         3.9263  -15.1089   -3.2508 H         1 <0>         0.0589
     69 H31         1.8384  -15.0167   -0.5080 H         1 <0>         0.1232
     70 H32        -0.4146  -16.0010   -0.3775 H         1 <0>         0.1212
     71 H33        -1.6341  -16.5702   -2.4342 H         1 <0>         0.1237
     72 H34         2.5773  -14.5181   -5.1053 H         1 <0>         0.3970
     73 H35         1.5941  -15.1681   -7.1414 H         1 <0>         0.0817
     74 H36         1.4427  -16.7349   -6.3018 H         1 <0>         0.0622
     75 H37        -0.5501  -14.4261   -6.0703 H         1 <0>         0.0717
     76 H38        -0.7781  -15.8674   -7.0935 H         1 <0>         0.0814
     77 H39        -0.7511  -17.3404   -5.1571 H         1 <0>         0.0759
     78 H40        -1.8978  -16.0238   -4.8307 H         1 <0>         0.0781
     79 H41         4.9721  -15.9351   -0.1481 H         1 <0>         0.4333
@<TRIPOS>BOND
     1    1    2 1
     2    1   39 1
     3    1   40 1
     4    1   41 1
     5    2    3 1
     6    3    8 ar
     7    3    4 ar
     8    4    5 ar
     9    4   42 1
    10    5    6 ar
    11    5   43 1
    12    6    7 ar
    13    6   44 1
    14    7    8 ar
    15    7   45 1
    16    8    9 1
    17    9   10 1
    18    9   46 1
    19    9   47 1
    20   10   11 1
    21   11   12 1
    22   11   48 1
    23   11   49 1
    24   12   13 1
    25   12   50 1
    26   12   51 1
    27   13   14 1
    28   13   52 1
    29   13   53 1
    30   14   15 1
    31   15   20 ar
    32   15   16 ar
    33   16   17 ar
    34   16   54 1
    35   17   18 ar
    36   17   55 1
    37   18   19 ar
    38   18   21 1
    39   19   20 ar
    40   19   56 1
    41   20   57 1
    42   21   26 1
    43   21   22 1
    44   21   58 1
    45   22   23 1
    46   22   59 1
    47   22   60 1
    48   23   24 1
    49   23   61 1
    50   23   62 1
    51   24   25 1
    52   24   63 1
    53   24   79 1
    54   25   26 1
    55   25   64 1
    56   25   65 1
    57   26   27 1
    58   26   66 1
    59   27   28 1
    60   28   29 1
    61   28   67 1
    62   28   68 1
    63   29   34 ar
    64   29   30 ar
    65   30   31 ar
    66   30   69 1
    67   31   32 ar
    68   31   70 1
    69   32   33 ar
    70   32   71 1
    71   33   38 1
    72   33   34 ar
    73   34   35 1
    74   35   36 1
    75   35   72 1
    76   36   37 1
    77   36   73 1
    78   36   74 1
    79   37   38 1
    80   37   75 1
    81   37   76 1
    82   38   77 1
    83   38   78 1
@<TRIPOS>MOLECULE
CHEMBL39538
   48    49     0     0     0
SMALL
USER_CHARGES

@<TRIPOS>ATOM
      1 C1         -0.0187    1.5258    0.0104 C.3       1 <0>        -0.1776
      2 C2          0.0021   -0.0041    0.0020 C.3       1 <0>         0.0112
      3 H1          0.5293   -0.3651    0.8851 H         1 <0>         0.1717
      4 C3         -1.4117   -0.5257    0.0127 C.2       1 <0>         0.5304
      5 O1         -1.8076   -1.2234   -0.8969 O.2       1 <0>        -0.5318
      6 N1         -2.2363   -0.2169    1.0331 N.am      1 <0>        -0.5683
      7 C4         -1.8892    0.6226    2.1943 C.3       1 <0>         0.0882
      8 C5         -2.8673    0.1791    3.3107 C.3       1 <0>        -0.1332
      9 C6         -4.1643   -0.0858    2.5014 C.3       1 <0>        -0.1074
     10 C7         -3.6327   -0.6561    1.1694 C.3       1 <0>         0.0641
     11 H2         -3.6785   -1.7449    1.1899 H         1 <0>         0.0740
     12 C8         -4.4508   -0.1274    0.0196 C.2       1 <0>         0.4986
     13 O2         -5.5898   -0.5269   -0.1527 O.co2     1 <0>        -0.6930
     14 O3         -3.9738    0.6999   -0.7384 O.co2     1 <0>        -0.6827
     15 N2          0.6897   -0.4778   -1.2066 N.4       1 <0>        -0.4669
     16 C9          2.1002   -0.0703   -1.1590 C.3       1 <0>        -0.0549
     17 C10         2.7864   -0.4539   -2.4716 C.3       1 <0>        -0.1162
     18 C11         2.1722    0.3472   -3.6213 C.3       1 <0>        -0.0962
     19 C12         2.8481   -0.0307   -4.9142 C.ar      1 <0>        -0.0817
     20 C13         3.9711    0.6576   -5.3339 C.ar      1 <0>        -0.1133
     21 C14         4.5911    0.3110   -6.5198 C.ar      1 <0>        -0.1186
     22 C15         4.0884   -0.7242   -7.2857 C.ar      1 <0>        -0.1233
     23 C16         2.9660   -1.4131   -6.8655 C.ar      1 <0>        -0.1174
     24 C17         2.3485   -1.0693   -5.6775 C.ar      1 <0>        -0.1160
     25 C18         2.7858   -0.7663   -0.0116 C.2       1 <0>         0.4964
     26 O4          2.2153   -1.6630    0.5860 O.co2     1 <0>        -0.6676
     27 O5          3.9109   -0.4328    0.3191 O.co2     1 <0>        -0.6423
     28 H3          1.0039    1.9031    0.0027 H         1 <0>         0.0849
     29 H4         -0.5459    1.8868   -0.8726 H         1 <0>         0.0843
     30 H5         -0.5289    1.8773    0.9072 H         1 <0>         0.1054
     31 H6         -0.8585    0.4413    2.4990 H         1 <0>         0.0768
     32 H7         -2.0361    1.6765    1.9580 H         1 <0>         0.0754
     33 H8         -2.5177   -0.7314    3.7974 H         1 <0>         0.0762
     34 H9         -3.0170    0.9765    4.0385 H         1 <0>         0.0832
     35 H10        -4.7950   -0.8142    3.0111 H         1 <0>         0.0800
     36 H11        -4.7080    0.8431    2.3293 H         1 <0>         0.0746
     37 H12         0.6317   -1.4840   -1.2540 H         1 <0>         0.4308
     38 H13         2.1621    1.0089   -1.0186 H         1 <0>         0.1341
     39 H14         3.8515   -0.2327   -2.4029 H         1 <0>         0.1107
     40 H15         2.6478   -1.5192   -2.6562 H         1 <0>         0.0821
     41 H16         1.1071    0.1259   -3.6900 H         1 <0>         0.0687
     42 H17         2.3108    1.4124   -3.4367 H         1 <0>         0.0854
     43 H18         4.3638    1.4663   -4.7355 H         1 <0>         0.1236
     44 H19         5.4680    0.8492   -6.8481 H         1 <0>         0.1218
     45 H20         4.5724   -0.9946   -8.2126 H         1 <0>         0.1205
     46 H21         2.5731   -2.2217   -7.4641 H         1 <0>         0.1223
     47 H22         1.4738   -1.6099   -5.3473 H         1 <0>         0.1228
     48 H23         0.2511   -0.0769   -2.0221 H         1 <0>         0.4105
@<TRIPOS>BOND
     1    1    2 1
     2    1   28 1
     3    1   29 1
     4    1   30 1
     5    2    3 1
     6    2    4 1
     7    2   15 1
     8    4    5 2
     9    4    6 am
    10    6   10 1
    11    6    7 1
    12    7    8 1
    13    7   31 1
    14    7   32 1
    15    8    9 1
    16    8   33 1
    17    8   34 1
    18    9   10 1
    19    9   35 1
    20    9   36 1
    21   10   11 1
    22   10   12 1
    23   12   13 2
    24   12   14 1
    25   15   16 1
    26   15   37 1
    27   15   48 1
    28   16   17 1
    29   16   25 1
    30   16   38 1
    31   17   18 1
    32   17   39 1
    33   17   40 1
    34   18   19 1
    35   18   41 1
    36   18   42 1
    37   19   24 ar
    38   19   20 ar
    39   20   21 ar
    40   20   43 1
    41   21   22 ar
    42   21   44 1
    43   22   23 ar
    44   22   45 1
    45   23   24 ar
    46   23   46 1
    47   24   47 1
    48   25   26 2
    49   25   27 1
@<TRIPOS>MOLECULE
CHEMBL39538__1
   48    49     0     0     0
SMALL
USER_CHARGES

@<TRIPOS>ATOM
      1 C1         -1.6051   -0.2577   -1.1883 C.3       1 <0>        -0.1736
      2 C2         -0.2061   -0.0952   -0.5904 C.3       1 <0>         0.0127
      3 H1         -0.0198    0.9585   -0.3831 H         1 <0>         0.1632
      4 C3         -0.1126   -0.8835    0.6906 C.2       1 <0>         0.5283
      5 O1          0.7071   -1.7708    0.7981 O.2       1 <0>        -0.5240
      6 N1         -0.9399   -0.6023    1.7168 N.am      1 <0>        -0.5676
      7 C4         -1.9819    0.4406    1.7194 C.3       1 <0>         0.0883
      8 C5         -2.1969    0.7825    3.2149 C.3       1 <0>        -0.1336
      9 C6         -2.0433   -0.6116    3.8784 C.3       1 <0>        -0.1073
     10 C7         -0.9568   -1.2890    3.0166 C.3       1 <0>         0.0638
     11 H2          0.0142   -1.1888    3.5015 H         1 <0>         0.0741
     12 C8         -1.2878   -2.7463    2.8222 C.2       1 <0>         0.4998
     13 O2         -1.1734   -3.5267    3.7518 O.co2     1 <0>        -0.6925
     14 O3         -1.6700   -3.1448    1.7351 O.co2     1 <0>        -0.6832
     15 N2          0.7948   -0.5910   -1.5446 N.4       1 <0>        -0.4652
     16 C9          2.1416   -0.2803   -1.0471 C.3       1 <0>        -0.0598
     17 C10         3.1846   -0.9262   -1.9614 C.3       1 <0>        -0.1104
     18 C11         3.0633   -2.4491   -1.8774 C.3       1 <0>        -0.0931
     19 C12         4.0906   -3.0853   -2.7779 C.ar      1 <0>        -0.0774
     20 C13         3.7789   -3.3593   -4.0965 C.ar      1 <0>        -0.1188
     21 C14         4.7212   -3.9429   -4.9226 C.ar      1 <0>        -0.1194
     22 C15         5.9753   -4.2520   -4.4302 C.ar      1 <0>        -0.1258
     23 C16         6.2873   -3.9771   -3.1119 C.ar      1 <0>        -0.1171
     24 C17         5.3465   -3.3896   -2.2869 C.ar      1 <0>        -0.1121
     25 C18         2.3404    1.2135   -1.0350 C.2       1 <0>         0.4970
     26 O4          3.2328    1.7042   -0.3646 O.co2     1 <0>        -0.6409
     27 O5          1.6089    1.9312   -1.6954 O.co2     1 <0>        -0.6782
     28 H3         -1.6376    0.2143   -2.1702 H         1 <0>         0.0857
     29 H4         -1.8370   -1.3182   -1.2870 H         1 <0>         0.0854
     30 H5         -2.3372    0.2149   -0.5334 H         1 <0>         0.1045
     31 H6         -1.6396    1.3203    1.1745 H         1 <0>         0.0755
     32 H7         -2.9035    0.0570    1.2816 H         1 <0>         0.0756
     33 H8         -1.4317    1.4717    3.5721 H         1 <0>         0.0762
     34 H9         -3.1947    1.1876    3.3835 H         1 <0>         0.0832
     35 H10        -1.7124   -0.5123    4.9122 H         1 <0>         0.0801
     36 H11        -2.9778   -1.1700    3.8234 H         1 <0>         0.0746
     37 H12         0.6961   -1.5899   -1.6468 H         1 <0>         0.4122
     38 H13         2.2541   -0.6701   -0.0354 H         1 <0>         0.1483
     39 H14         3.0159   -0.6045   -2.9891 H         1 <0>         0.0774
     40 H15         4.1826   -0.6232   -1.6450 H         1 <0>         0.1060
     41 H16         3.2320   -2.7708   -0.8497 H         1 <0>         0.0921
     42 H17         2.0652   -2.7521   -2.1938 H         1 <0>         0.0649
     43 H18         2.7990   -3.1178   -4.4812 H         1 <0>         0.1196
     44 H19         4.4774   -4.1576   -5.9526 H         1 <0>         0.1205
     45 H20         6.7113   -4.7086   -5.0754 H         1 <0>         0.1197
     46 H21         7.2671   -4.2189   -2.7271 H         1 <0>         0.1219
     47 H22         5.5914   -3.1715   -1.2580 H         1 <0>         0.1250
     48 H23         0.6558   -0.1460   -2.4394 H         1 <0>         0.4242
@<TRIPOS>BOND
     1    1    2 1
     2    1   28 1
     3    1   29 1
     4    1   30 1
     5    2    3 1
     6    2    4 1
     7    2   15 1
     8    4    5 2
     9    4    6 am
    10    6   10 1
    11    6    7 1
    12    7    8 1
    13    7   31 1
    14    7   32 1
    15    8    9 1
    16    8   33 1
    17    8   34 1
    18    9   10 1
    19    9   35 1
    20    9   36 1
    21   10   11 1
    22   10   12 1
    23   12   13 2
    24   12   14 1
    25   15   16 1
    26   15   37 1
    27   15   48 1
    28   16   17 1
    29   16   25 1
    30   16   38 1
    31   17   18 1
    32   17   39 1
    33   17   40 1
    34   18   19 1
    35   18   41 1
    36   18   42 1
    37   19   24 ar
    38   19   20 ar
    39   20   21 ar
    40   20   43 1
    41   21   22 ar
    42   21   44 1
    43   22   23 ar
    44   22   45 1
    45   23   24 ar
    46   23   46 1
    47   24   47 1
    48   25   26 2
    49   25   27 1
@<TRIPOS>MOLECULE
CHEMBL538094
   97    98     0     0     0
SMALL
USER_CHARGES

@<TRIPOS>ATOM
      1 C1         -0.7462    1.3033    1.5271 C.3       1 <0>        -0.1558
      2 C2         -0.8287   -0.2237    1.5747 C.3       1 <0>        -0.1027
      3 H1         -0.1072   -0.6484    0.8767 H         1 <0>         0.1170
      4 C3         -2.2391   -0.6706    1.1852 C.3       1 <0>        -0.1573
      5 C4         -2.5082   -0.2960   -0.2736 C.3       1 <0>         0.0879
      6 H2         -2.3368    0.7715   -0.4121 H         1 <0>         0.1504
      7 C5         -3.9591   -0.6295   -0.6265 C.3       1 <0>        -0.0125
      8 H3         -4.6294   -0.0018   -0.0392 H         1 <0>         0.1568
      9 C6         -4.1938   -0.3719   -2.1163 C.3       1 <0>        -0.1428
     10 C7         -5.6780   -0.5572   -2.4383 C.3       1 <0>        -0.0886
     11 H4         -5.9989   -1.5476   -2.1155 H         1 <0>         0.0650
     12 C8         -6.4958    0.5080   -1.7052 C.3       1 <0>        -0.0792
     13 C9         -7.9650    0.2405   -1.9072 C.ar      1 <0>        -0.0961
     14 C10        -8.6271    0.8035   -2.9824 C.ar      1 <0>        -0.1050
     15 C11        -9.9749    0.5612   -3.1721 C.ar      1 <0>        -0.1678
     16 C12       -10.6651   -0.2479   -2.2838 C.ar      1 <0>         0.1106
     17 C13        -9.9985   -0.8149   -1.2019 C.ar      1 <0>         0.1066
     18 C14        -8.6465   -0.5719   -1.0203 C.ar      1 <0>        -0.1776
     19 O1        -10.6715   -1.6097   -0.3273 O.3       1 <0>        -0.2966
     20 C15        -9.9230   -2.1575    0.7597 C.3       1 <0>         0.0695
     21 C16       -10.8421   -3.0174    1.6297 C.3       1 <0>        -0.1269
     22 C17       -10.0406   -3.6039    2.7936 C.3       1 <0>         0.0697
     23 O2        -10.8990   -4.4071    3.6061 O.3       1 <0>        -0.3856
     24 C18       -10.2456   -5.0051    4.7274 C.3       1 <0>         0.0312
     25 O3        -11.9910   -0.4869   -2.4687 O.3       1 <0>        -0.3030
     26 C19       -12.6095    0.1286   -3.6003 C.3       1 <0>         0.0233
     27 C20        -5.8939   -0.4176   -3.9466 C.3       1 <0>        -0.0938
     28 C21        -5.3386    0.9276   -4.4188 C.3       1 <0>        -0.1591
     29 C22        -5.1685   -1.5521   -4.6728 C.3       1 <0>        -0.1560
     30 N1         -4.2236   -2.0430   -0.3264 N.4       1 <0>        -0.6420
     31 O4         -1.6292   -1.0341   -1.1248 O.3       1 <0>        -0.5309
     32 C23        -0.5181   -0.7003    2.9702 C.2       1 <0>         0.5259
     33 O5         -1.3436   -1.3349    3.5921 O.2       1 <0>        -0.5294
     34 N2          0.6770   -0.4213    3.5273 N.am      1 <0>        -0.7288
     35 C24         0.9789   -0.8846    4.8839 C.3       1 <0>         0.0933
     36 C25         2.3894   -0.4376    5.2734 C.3       1 <0>        -0.0225
     37 N3          2.6921   -0.9022    6.6337 N.4       1 <0>        -0.3815
     38 C26         1.7901   -0.2436    7.5862 C.3       1 <0>        -0.0089
     39 C27         2.0466   -0.7841    8.9946 C.3       1 <0>        -0.1467
     40 C28         3.4998   -0.5022    9.3868 C.3       1 <0>         0.0762
     41 C29         4.4304   -1.1308    8.3457 C.3       1 <0>        -0.1739
     42 C30         4.0856   -0.5775    6.9613 C.3       1 <0>        -0.0011
     43 O6          3.7668   -1.0696   10.6709 O.3       1 <0>        -0.3715
     44 C31         4.7539   -0.3628   11.4248 C.3       1 <0>         0.0244
     45 H5          0.2587    1.6218    1.8046 H         1 <0>         0.0688
     46 H6         -0.9708    1.6481    0.5178 H         1 <0>         0.0794
     47 H7         -1.4676    1.7281    2.2251 H         1 <0>         0.0682
     48 H8         -2.3239   -1.7508    1.3046 H         1 <0>         0.0756
     49 H9         -2.9675   -0.1758    1.8277 H         1 <0>         0.0999
     50 H10        -3.8935    0.6470   -2.3605 H         1 <0>         0.1215
     51 H11        -3.6039   -1.0753   -2.7040 H         1 <0>         0.1033
     52 H12        -6.2636    0.4755   -0.6407 H         1 <0>         0.0648
     53 H13        -6.2479    1.4927   -2.1013 H         1 <0>         0.0904
     54 H14        -8.0904    1.4343   -3.6755 H         1 <0>         0.1289
     55 H15       -10.4899    1.0028   -4.0124 H         1 <0>         0.1403
     56 H16        -8.1260   -1.0138   -0.1835 H         1 <0>         0.1247
     57 H17        -9.1123   -2.7726    0.3691 H         1 <0>         0.0562
     58 H18        -9.5080   -1.3477    1.3597 H         1 <0>         0.0609
     59 H19       -11.6527   -2.4023    2.0203 H         1 <0>         0.0886
     60 H20       -11.2571   -3.8273    1.0297 H         1 <0>         0.0875
     61 H21        -9.2300   -4.2191    2.4030 H         1 <0>         0.0467
     62 H22        -9.6256   -2.7941    3.3935 H         1 <0>         0.0494
     63 H23        -9.4392   -5.6493    4.3770 H         1 <0>         0.0414
     64 H24        -9.8348   -4.2243    5.3675 H         1 <0>         0.0425
     65 H25       -10.9644   -5.5979    5.2931 H         1 <0>         0.0933
     66 H26       -13.6647   -0.1432   -3.6302 H         1 <0>         0.1075
     67 H27       -12.5154    1.2116   -3.5215 H         1 <0>         0.0586
     68 H28       -12.1203   -0.2133   -4.5124 H         1 <0>         0.0580
     69 H29        -6.9601   -0.4681   -4.1672 H         1 <0>         0.0891
     70 H30        -4.2581    0.9449   -4.2761 H         1 <0>         0.0574
     71 H31        -5.5677    1.0644   -5.4757 H         1 <0>         0.0639
     72 H32        -5.7943    1.7318   -3.8412 H         1 <0>         0.0612
     73 H33        -5.6079   -2.5072   -4.3851 H         1 <0>         0.0540
     74 H34        -5.2678   -1.4162   -5.7498 H         1 <0>         0.0658
     75 H35        -4.1130   -1.5412   -4.4011 H         1 <0>         0.0545
     76 H36        -3.5609   -2.6215   -0.8207 H         1 <0>         0.4287
     77 H37        -4.1315   -2.1990    0.6662 H         1 <0>         0.4352
     78 H38        -1.7268   -1.9935   -1.0540 H         1 <0>         0.3705
     79 H39         1.3373    0.0863    3.0300 H         1 <0>         0.4116
     80 H40         0.2575   -0.4598    5.5819 H         1 <0>         0.0925
     81 H41         0.9202   -1.9725    4.9178 H         1 <0>         0.0919
     82 H42         3.1109   -0.8624    4.5754 H         1 <0>         0.1405
     83 H43         2.4482    0.6502    5.2395 H         1 <0>         0.1389
     84 H44         1.9694    0.8314    7.5718 H         1 <0>         0.1338
     85 H45         0.7563   -0.4425    7.3038 H         1 <0>         0.1370
     86 H46         1.3771   -0.2925    9.7005 H         1 <0>         0.1216
     87 H47         1.8673   -1.8591    9.0102 H         1 <0>         0.0994
     88 H48         3.6658    0.5746    9.4212 H         1 <0>         0.0794
     89 H49         5.4648   -0.8871    8.5877 H         1 <0>         0.1169
     90 H50         4.3006   -2.2131    8.3478 H         1 <0>         0.0994
     91 H51         4.7465   -1.0229    6.2176 H         1 <0>         0.1371
     92 H52         4.2160    0.5047    6.9602 H         1 <0>         0.1325
     93 H53         4.8990   -0.8561   12.3859 H         1 <0>         0.1003
     94 H54         5.6947   -0.3553   10.8745 H         1 <0>         0.0484
     95 H55         4.4207    0.6620   11.5889 H         1 <0>         0.0513
     96 H56         2.5599   -1.9013    6.6841 H         1 <0>         0.4274
     97 H57        -5.1599   -2.2794   -0.6186 H         1 <0>         0.4396
@<TRIPOS>BOND
     1    1    2 1
     2    1   45 1
     3    1   46 1
     4    1   47 1
     5    2    3 1
     6    2    4 1
     7    2   32 1
     8    4    5 1
     9    4   48 1
    10    4   49 1
    11    5    6 1
    12    5    7 1
    13    5   31 1
    14    7    8 1
    15    7    9 1
    16    7   30 1
    17    9   10 1
    18    9   50 1
    19    9   51 1
    20   10   11 1
    21   10   12 1
    22   10   27 1
    23   12   13 1
    24   12   52 1
    25   12   53 1
    26   13   18 ar
    27   13   14 ar
    28   14   15 ar
    29   14   54 1
    30   15   16 ar
    31   15   55 1
    32   16   17 ar
    33   16   25 1
    34   17   18 ar
    35   17   19 1
    36   18   56 1
    37   19   20 1
    38   20   21 1
    39   20   57 1
    40   20   58 1
    41   21   22 1
    42   21   59 1
    43   21   60 1
    44   22   23 1
    45   22   61 1
    46   22   62 1
    47   23   24 1
    48   24   63 1
    49   24   64 1
    50   24   65 1
    51   25   26 1
    52   26   66 1
    53   26   67 1
    54   26   68 1
    55   27   28 1
    56   27   29 1
    57   27   69 1
    58   28   70 1
    59   28   71 1
    60   28   72 1
    61   29   73 1
    62   29   74 1
    63   29   75 1
    64   30   76 1
    65   30   77 1
    66   30   97 1
    67   31   78 1
    68   32   33 2
    69   32   34 am
    70   34   35 1
    71   34   79 1
    72   35   36 1
    73   35   80 1
    74   35   81 1
    75   36   37 1
    76   36   82 1
    77   36   83 1
    78   37   42 1
    79   37   38 1
    80   37   96 1
    81   38   39 1
    82   38   84 1
    83   38   85 1
    84   39   40 1
    85   39   86 1
    86   39   87 1
    87   40   41 1
    88   40   43 1
    89   40   88 1
    90   41   42 1
    91   41   89 1
    92   41   90 1
    93   42   91 1
    94   42   92 1
    95   43   44 1
    96   44   93 1
    97   44   94 1
    98   44   95 1
@<TRIPOS>MOLECULE
CHEMBL536529
   91    92     0     0     0
SMALL
USER_CHARGES

@<TRIPOS>ATOM
      1 C1         -2.2921   -0.3031   -2.4800 C.3       1 <0>        -0.1562
      2 C2         -3.6806   -0.3557   -1.8395 C.3       1 <0>        -0.0917
      3 C3         -4.5982   -1.2426   -2.6834 C.3       1 <0>        -0.1584
      4 C4         -3.5693   -0.9345   -0.4276 C.3       1 <0>        -0.0886
      5 H1         -2.8666   -0.3387    0.1550 H         1 <0>         0.0662
      6 C5         -4.9431   -0.9052    0.2453 C.3       1 <0>        -0.0807
      7 C6         -5.3737    0.5249    0.4463 C.ar      1 <0>        -0.0898
      8 C7         -4.9338    1.2288    1.5519 C.ar      1 <0>        -0.1199
      9 C8         -5.3260    2.5409    1.7408 C.ar      1 <0>        -0.1701
     10 C9         -6.1613    3.1535    0.8206 C.ar      1 <0>         0.1063
     11 C10        -6.6037    2.4452   -0.2925 C.ar      1 <0>         0.1123
     12 C11        -6.2030    1.1318   -0.4783 C.ar      1 <0>        -0.1680
     13 O1         -7.4237    3.0422   -1.1985 O.3       1 <0>        -0.2977
     14 C12        -7.8380    2.2544   -2.3164 C.3       1 <0>         0.0648
     15 C13        -8.7489    3.0891   -3.2189 C.3       1 <0>        -0.1223
     16 C14        -9.1926    2.2456   -4.4158 C.3       1 <0>         0.0666
     17 O2        -10.0434    3.0252   -5.2587 O.3       1 <0>        -0.3884
     18 C15       -10.5161    2.3271   -6.4125 C.3       1 <0>         0.0308
     19 O3         -6.5484    4.4441    1.0051 O.3       1 <0>        -0.3027
     20 C16        -6.0559    5.1089    2.1702 C.3       1 <0>         0.0249
     21 C17        -3.0706   -2.3788   -0.5063 C.3       1 <0>        -0.1432
     22 C18        -2.8168   -2.9084    0.9065 C.3       1 <0>        -0.0097
     23 H2         -3.7225   -2.8004    1.5032 H         1 <0>         0.1554
     24 C19        -2.4264   -4.3860    0.8348 C.3       1 <0>         0.0910
     25 H3         -3.2349   -4.9534    0.3739 H         1 <0>         0.1474
     26 C20        -2.1726   -4.9156    2.2476 C.3       1 <0>        -0.1568
     27 C21        -1.9335   -6.4258    2.1909 C.3       1 <0>        -0.0969
     28 H4         -2.7496   -6.9027    1.6481 H         1 <0>         0.1031
     29 C22        -0.6115   -6.7062    1.4736 C.3       1 <0>        -0.1035
     30 C23         0.5356   -6.0471    2.2423 C.3       1 <0>        -0.1508
     31 C24        -0.3784   -8.2168    1.4061 C.3       1 <0>        -0.1727
     32 C25        -1.8719   -6.9776    3.5918 C.2       1 <0>         0.5207
     33 O4         -1.8272   -6.2223    4.5397 O.2       1 <0>        -0.5412
     34 N1         -1.8664   -8.3105    3.7915 N.am      1 <0>        -0.7248
     35 C26        -1.7382   -8.8474    5.1485 C.3       1 <0>         0.1034
     36 C27        -1.7597  -10.3763    5.0962 C.3       1 <0>         0.1181
     37 H5         -2.7255  -10.7272    4.7327 H         1 <0>         0.0990
     38 C28        -1.4699  -10.9632    6.4955 C.3       1 <0>        -0.1246
     39 C29         0.0599  -11.1807    6.4355 C.3       1 <0>        -0.1595
     40 C30         0.3567  -11.3228    4.9589 C.2       1 <0>         0.5206
     41 O5          1.3811  -11.7792    4.4971 O.2       1 <0>        -0.5224
     42 N2         -0.6816  -10.8701    4.2314 N.am      1 <0>        -0.7336
     43 O6         -1.2390   -4.5276    0.0526 O.3       1 <0>        -0.5296
     44 N3         -1.7271   -2.1437    1.5277 N.4       1 <0>        -0.6425
     45 H6         -2.3778    0.0609   -3.5038 H         1 <0>         0.0639
     46 H7         -1.6532    0.3694   -1.9076 H         1 <0>         0.0539
     47 H8         -1.8561   -1.3021   -2.4849 H         1 <0>         0.0569
     48 H9         -4.0953    0.6510   -1.7878 H         1 <0>         0.0848
     49 H10        -4.2317   -2.2689   -2.6621 H         1 <0>         0.0595
     50 H11        -5.6093   -1.2095   -2.2775 H         1 <0>         0.0583
     51 H12        -4.6074   -0.8814   -3.7117 H         1 <0>         0.0621
     52 H13        -5.6683   -1.4176   -0.3868 H         1 <0>         0.0870
     53 H14        -4.8851   -1.4064    1.2116 H         1 <0>         0.0695
     54 H15        -4.2827    0.7524    2.2699 H         1 <0>         0.1175
     55 H16        -4.9815    3.0883    2.6057 H         1 <0>         0.1370
     56 H17        -6.5419    0.5811   -1.3433 H         1 <0>         0.1352
     57 H18        -6.9618    1.9349   -2.8804 H         1 <0>         0.0634
     58 H19        -8.3814    1.3784   -1.9621 H         1 <0>         0.0642
     59 H20        -9.6252    3.4086   -2.6548 H         1 <0>         0.0861
     60 H21        -8.2056    3.9651   -3.5731 H         1 <0>         0.0857
     61 H22        -8.3163    1.9261   -4.9798 H         1 <0>         0.0513
     62 H23        -9.7359    1.3696   -4.0616 H         1 <0>         0.0519
     63 H24       -11.1547    2.9868   -7.0000 H         1 <0>         0.0912
     64 H25        -9.6673    2.0093   -7.0180 H         1 <0>         0.0431
     65 H26       -11.0869    1.4528   -6.0997 H         1 <0>         0.0435
     66 H27        -6.4394    6.1289    2.1960 H         1 <0>         0.1059
     67 H28        -6.3861    4.5739    3.0606 H         1 <0>         0.0567
     68 H29        -4.9665    5.1309    2.1427 H         1 <0>         0.0557
     69 H30        -3.8230   -2.9968   -0.9962 H         1 <0>         0.1198
     70 H31        -2.1437   -2.4124   -1.0789 H         1 <0>         0.1043
     71 H32        -1.2949   -4.4243    2.6676 H         1 <0>         0.0783
     72 H33        -3.0398   -4.7084    2.8746 H         1 <0>         0.0987
     73 H34        -0.6528   -6.2994    0.4633 H         1 <0>         0.1183
     74 H35         0.5155   -6.3792    3.2802 H         1 <0>         0.0575
     75 H36         1.4859   -6.3288    1.7889 H         1 <0>         0.0662
     76 H37         0.4224   -4.9636    2.2052 H         1 <0>         0.0426
     77 H38        -1.2327   -8.6952    0.9271 H         1 <0>         0.0603
     78 H39         0.5231   -8.4199    0.8279 H         1 <0>         0.0685
     79 H40        -0.2594   -8.6116    2.4151 H         1 <0>         0.0641
     80 H41        -1.9474   -8.9143    3.0367 H         1 <0>         0.4025
     81 H42        -0.7972   -8.5119    5.5846 H         1 <0>         0.0759
     82 H43        -2.5685   -8.4930    5.7594 H         1 <0>         0.0863
     83 H44        -1.7323  -10.2521    7.2788 H         1 <0>         0.0977
     84 H45        -1.9930  -11.9088    6.6379 H         1 <0>         0.0938
     85 H46         0.5842  -10.3191    6.8488 H         1 <0>         0.1068
     86 H47         0.3372  -12.0895    6.9695 H         1 <0>         0.1088
     87 H48        -0.7142  -10.8701    3.2620 H         1 <0>         0.4072
     88 H49        -0.4599   -4.1059    0.4404 H         1 <0>         0.3702
     89 H50        -0.9130   -2.1743    0.9325 H         1 <0>         0.4305
     90 H51        -2.0172   -1.1853    1.6520 H         1 <0>         0.4387
     91 H52        -1.5029   -2.5463    2.4253 H         1 <0>         0.4349
@<TRIPOS>BOND
     1    1    2 1
     2    1   45 1
     3    1   46 1
     4    1   47 1
     5    2    3 1
     6    2    4 1
     7    2   48 1
     8    3   49 1
     9    3   50 1
    10    3   51 1
    11    4    5 1
    12    4    6 1
    13    4   21 1
    14    6    7 1
    15    6   52 1
    16    6   53 1
    17    7   12 ar
    18    7    8 ar
    19    8    9 ar
    20    8   54 1
    21    9   10 ar
    22    9   55 1
    23   10   11 ar
    24   10   19 1
    25   11   12 ar
    26   11   13 1
    27   12   56 1
    28   13   14 1
    29   14   15 1
    30   14   57 1
    31   14   58 1
    32   15   16 1
    33   15   59 1
    34   15   60 1
    35   16   17 1
    36   16   61 1
    37   16   62 1
    38   17   18 1
    39   18   63 1
    40   18   64 1
    41   18   65 1
    42   19   20 1
    43   20   66 1
    44   20   67 1
    45   20   68 1
    46   21   22 1
    47   21   69 1
    48   21   70 1
    49   22   23 1
    50   22   24 1
    51   22   44 1
    52   24   25 1
    53   24   26 1
    54   24   43 1
    55   26   27 1
    56   26   71 1
    57   26   72 1
    58   27   28 1
    59   27   29 1
    60   27   32 1
    61   29   30 1
    62   29   31 1
    63   29   73 1
    64   30   74 1
    65   30   75 1
    66   30   76 1
    67   31   77 1
    68   31   78 1
    69   31   79 1
    70   32   33 2
    71   32   34 am
    72   34   35 1
    73   34   80 1
    74   35   36 1
    75   35   81 1
    76   35   82 1
    77   36   37 1
    78   36   42 1
    79   36   38 1
    80   38   39 1
    81   38   83 1
    82   38   84 1
    83   39   40 1
    84   39   85 1
    85   39   86 1
    86   40   41 2
    87   40   42 am
    88   42   87 1
    89   43   88 1
    90   44   89 1
    91   44   90 1
    92   44   91 1
@<TRIPOS>MOLECULE
CHEMBL30618
   75    79     0     0     0
SMALL
USER_CHARGES

@<TRIPOS>ATOM
      1 C1         -0.0173    1.4248    0.0099 C.3       1 <0>         0.0263
      2 O1          0.0021   -0.0041    0.0020 O.3       1 <0>        -0.3190
      3 C2         -1.2003   -0.6375    0.0101 C.ar      1 <0>         0.1311
      4 C3         -2.3748    0.1012    0.0195 C.ar      1 <0>        -0.2067
      5 C4         -3.5956   -0.5449    0.0272 C.ar      1 <0>        -0.0781
      6 C5         -3.6478   -1.9268    0.0256 C.ar      1 <0>        -0.1573
      7 C6         -2.4790   -2.6650    0.0167 C.ar      1 <0>        -0.0598
      8 C7         -1.2554   -2.0235    0.0032 C.ar      1 <0>        -0.1257
      9 C8          0.0182   -2.8288   -0.0128 C.3       1 <0>         0.1184
     10 O2         -0.2992   -4.2221   -0.0174 O.3       1 <0>        -0.3827
     11 C9          0.8445   -5.0787   -0.0324 C.3       1 <0>         0.0684
     12 C10         0.3879   -6.5390   -0.0361 C.3       1 <0>        -0.1202
     13 C11         1.6124   -7.4562   -0.0522 C.3       1 <0>         0.0633
     14 O3          1.1859   -8.8201   -0.0556 O.3       1 <0>        -0.3094
     15 C12         2.1574   -9.7703   -0.0696 C.ar      1 <0>         0.1453
     16 C13         3.4938   -9.3976   -0.0741 C.ar      1 <0>        -0.2040
     17 C14         4.4794  -10.3654   -0.0878 C.ar      1 <0>        -0.0558
     18 C15         4.1351  -11.7045   -0.0976 C.ar      1 <0>        -0.1279
     19 C16         2.8040  -12.0784   -0.0936 C.ar      1 <0>        -0.0782
     20 C17         1.8146  -11.1145   -0.0737 C.ar      1 <0>        -0.1485
     21 C18         5.2124  -12.7581   -0.1131 C.3       1 <0>        -0.0476
     22 H1          6.1913  -12.2786   -0.1145 H         1 <0>         0.1036
     23 C19         5.0788  -13.6455    1.1278 C.3       1 <0>        -0.1394
     24 C20         6.1247  -14.7607    1.0658 C.3       1 <0>        -0.0101
     25 N1          5.9123  -15.5691   -0.1408 N.4       1 <0>        -0.4993
     26 C21         6.1096  -14.7407   -1.3364 C.3       1 <0>        -0.0397
     27 C22         5.0643  -13.6235   -1.3678 C.3       1 <0>         0.0782
     28 H2          4.0663  -14.0610   -1.3925 H         1 <0>         0.0865
     29 O4          5.2612  -12.8162   -2.5303 O.3       1 <0>        -0.3425
     30 C23         4.5312  -13.2592   -3.6761 C.3       1 <0>         0.0993
     31 C24         4.8120  -12.3402   -4.8369 C.ar      1 <0>        -0.0817
     32 C25         4.0066  -11.2203   -5.0351 C.ar      1 <0>        -0.1003
     33 C26         4.2346  -10.3709   -6.0743 C.ar      1 <0>        -0.0896
     34 C27         5.2951  -10.6257   -6.9589 C.ar      1 <0>        -0.0963
     35 C28         5.5647   -9.7721   -8.0453 C.ar      1 <0>        -0.0578
     36 C29         6.6129  -10.0825   -8.8640 C.ar      1 <0>        -0.1669
     37 C30         7.3801  -11.2178   -8.6113 C.ar      1 <0>         0.1382
     38 N2          7.1262  -12.0104   -7.5986 N.ar      1 <0>        -0.4758
     39 C31         6.1152  -11.7637   -6.7595 C.ar      1 <0>         0.1213
     40 C32         5.8513  -12.6141   -5.6714 C.ar      1 <0>        -0.0649
     41 H3          1.0053    1.8021    0.0021 H         1 <0>         0.1019
     42 H4         -0.5445    1.7859   -0.8732 H         1 <0>         0.0574
     43 H5         -0.5275    1.7763    0.9067 H         1 <0>         0.0575
     44 H6         -2.3345    1.1804    0.0211 H         1 <0>         0.1308
     45 H7         -4.5101    0.0296    0.0349 H         1 <0>         0.1268
     46 H8         -4.6033   -2.4302    0.0316 H         1 <0>         0.1262
     47 H9         -2.5225   -3.7442    0.0158 H         1 <0>         0.1383
     48 H10         0.5918   -2.5839   -0.9068 H         1 <0>         0.0641
     49 H11         0.6081   -2.5934    0.8731 H         1 <0>         0.0642
     50 H12         1.4351   -4.8805   -0.9268 H         1 <0>         0.0537
     51 H13         1.4515   -4.8901    0.8530 H         1 <0>         0.0540
     52 H14        -0.2028   -6.7372    0.8583 H         1 <0>         0.0857
     53 H15        -0.2191   -6.7277   -0.9215 H         1 <0>         0.0854
     54 H16         2.2030   -7.2580   -0.9466 H         1 <0>         0.0672
     55 H17         2.2193   -7.2675    0.8333 H         1 <0>         0.0675
     56 H18         3.7632   -8.3518   -0.0672 H         1 <0>         0.1317
     57 H19         5.5199  -10.0758   -0.0913 H         1 <0>         0.1257
     58 H20         2.5376  -13.1250   -0.1017 H         1 <0>         0.1217
     59 H21         0.7750  -11.4072   -0.0661 H         1 <0>         0.1342
     60 H22         5.2393  -13.0453    2.0235 H         1 <0>         0.1224
     61 H23         4.0810  -14.0834    1.1564 H         1 <0>         0.0932
     62 H24         7.1220  -14.3216    1.0376 H         1 <0>         0.1343
     63 H25         6.0324  -15.3942    1.9480 H         1 <0>         0.1390
     64 H26         6.5692  -16.3349   -0.1513 H         1 <0>         0.4356
     65 H27         7.1072  -14.3021   -1.3134 H         1 <0>         0.1415
     66 H28         6.0062  -15.3596   -2.2277 H         1 <0>         0.1348
     67 H29         4.8383  -14.2731   -3.9329 H         1 <0>         0.0639
     68 H30         3.4642  -13.2481   -3.4537 H         1 <0>         0.0717
     69 H31         3.1906  -11.0237   -4.3555 H         1 <0>         0.1281
     70 H32         3.6034   -9.5064   -6.2178 H         1 <0>         0.1348
     71 H33         4.9593   -8.8963   -8.2266 H         1 <0>         0.1430
     72 H34         6.8467   -9.4488   -9.7068 H         1 <0>         0.1436
     73 H35         8.2057  -11.4510   -9.2673 H         1 <0>         0.1644
     74 H36         6.4687  -13.4837   -5.5009 H         1 <0>         0.1341
     75 H37         4.9721  -15.9352   -0.1379 H         1 <0>         0.4276
@<TRIPOS>BOND
     1    1    2 1
     2    1   41 1
     3    1   42 1
     4    1   43 1
     5    2    3 1
     6    3    8 ar
     7    3    4 ar
     8    4    5 ar
     9    4   44 1
    10    5    6 ar
    11    5   45 1
    12    6    7 ar
    13    6   46 1
    14    7    8 ar
    15    7   47 1
    16    8    9 1
    17    9   10 1
    18    9   48 1
    19    9   49 1
    20   10   11 1
    21   11   12 1
    22   11   50 1
    23   11   51 1
    24   12   13 1
    25   12   52 1
    26   12   53 1
    27   13   14 1
    28   13   54 1
    29   13   55 1
    30   14   15 1
    31   15   20 ar
    32   15   16 ar
    33   16   17 ar
    34   16   56 1
    35   17   18 ar
    36   17   57 1
    37   18   19 ar
    38   18   21 1
    39   19   20 ar
    40   19   58 1
    41   20   59 1
    42   21   22 1
    43   21   27 1
    44   21   23 1
    45   23   24 1
    46   23   60 1
    47   23   61 1
    48   24   25 1
    49   24   62 1
    50   24   63 1
    51   25   26 1
    52   25   64 1
    53   25   75 1
    54   26   27 1
    55   26   65 1
    56   26   66 1
    57   27   28 1
    58   27   29 1
    59   29   30 1
    60   30   31 1
    61   30   67 1
    62   30   68 1
    63   31   40 ar
    64   31   32 ar
    65   32   33 ar
    66   32   69 1
    67   33   34 ar
    68   33   70 1
    69   34   39 ar
    70   34   35 ar
    71   35   36 ar
    72   35   71 1
    73   36   37 ar
    74   36   72 1
    75   37   38 ar
    76   37   73 1
    77   38   39 ar
    78   39   40 ar
    79   40   74 1
@<TRIPOS>MOLECULE
CHEMBL608264
   86    89     0     0     0
SMALL
USER_CHARGES

@<TRIPOS>ATOM
      1 C1         -0.0322    1.4688    0.0065 C.3       1 <0>        -0.0487
      2 N1         -0.0072    0.0000   -0.0002 N.4       1 <0>        -0.5061
      3 C2          0.6823   -0.4724   -1.2082 C.3       1 <0>        -0.0262
      4 C3          0.7084   -2.0022   -1.2152 C.3       1 <0>         0.1326
      5 H1          1.3118   -2.3591   -0.3805 H         1 <0>         0.1214
      6 C4          1.3144   -2.4959   -2.5304 C.3       1 <0>        -0.1230
      7 C5          1.4556   -4.0188   -2.4870 C.3       1 <0>        -0.0841
      8 C6          2.4656   -4.4067   -1.4052 C.3       1 <0>        -0.1169
      9 C7          2.6068   -5.9295   -1.3618 C.3       1 <0>        -0.1202
     10 C8          3.0953   -6.4354   -2.7206 C.3       1 <0>        -0.1234
     11 C9          2.0853   -6.0475   -3.8024 C.3       1 <0>        -0.1214
     12 C10         1.9441   -4.5246   -3.8458 C.3       1 <0>        -0.1149
     13 N2         -0.6578   -2.5145   -1.0843 N.am      1 <0>        -0.7512
     14 C11        -1.2095   -2.6582    0.1369 C.2       1 <0>         0.6936
     15 O1         -0.5430   -2.4537    1.1330 O.2       1 <0>        -0.5967
     16 N3         -2.5001   -3.0287    0.2540 N.am      1 <0>        -0.6121
     17 C12        -3.2853   -3.3918   -0.9335 C.3       1 <0>         0.1035
     18 C13        -4.5650   -2.5499   -0.9548 C.3       1 <0>        -0.1336
     19 C14        -5.3101   -2.7279    0.3701 C.3       1 <0>        -0.1181
     20 C15        -4.4295   -2.2391    1.5223 C.3       1 <0>        -0.1229
     21 H2         -4.1728   -1.1915    1.3650 H         1 <0>         0.0844
     22 C16        -3.1467   -3.0829    1.5723 C.3       1 <0>         0.1217
     23 C17        -5.1881   -2.3863    2.8428 C.3       1 <0>         0.1892
     24 C18        -4.3071   -1.8975    3.9943 C.3       1 <0>        -0.1394
     25 C19        -5.0657   -2.0446    5.3148 C.3       1 <0>        -0.1329
     26 C20        -4.1848   -1.5558    6.4663 C.3       1 <0>         0.1212
     27 N4         -4.9111   -1.6967    7.7307 N.am      1 <0>        -0.7292
     28 C21        -4.3278   -1.3263    8.8878 C.2       1 <0>         0.5449
     29 O2         -3.2016   -0.8763    8.8824 O.2       1 <0>        -0.5404
     30 C22        -5.0750   -1.4713   10.1885 C.3       1 <0>        -0.2011
     31 C23        -5.5031   -0.1885   10.9041 C.3       1 <0>        -0.1510
     32 C24        -4.3586   -1.0332   11.4674 C.3       1 <0>        -0.1458
     33 C25        -6.4499   -1.5639    2.7916 C.ar      1 <0>        -0.0627
     34 C26        -6.4950   -0.4143    2.0248 C.ar      1 <0>        -0.1123
     35 C27        -7.6519    0.3405    1.9773 C.ar      1 <0>        -0.1066
     36 C28        -8.7645   -0.0535    2.6969 C.ar      1 <0>        -0.1053
     37 C29        -8.7200   -1.2036    3.4643 C.ar      1 <0>        -0.0353
     38 C30        -7.5634   -1.9621    3.5066 C.ar      1 <0>        -0.0819
     39 Cl1       -10.1168   -1.6990    4.3682 Cl        1 <0>        -0.0594
     40 O3         -5.5229   -3.7601    3.0493 O.3       1 <0>        -0.5431
     41 H3          0.9890    1.8496   -0.0013 H         1 <0>         0.1264
     42 H4         -0.5605    1.8272   -0.8770 H         1 <0>         0.1218
     43 H5         -0.5438    1.8194    0.9029 H         1 <0>         0.1256
     44 H6          0.4818   -0.3318    0.8177 H         1 <0>         0.4372
     45 H7          0.1541   -0.1140   -2.0917 H         1 <0>         0.1332
     46 H8          1.7036   -0.0916   -1.2161 H         1 <0>         0.1449
     47 H9          0.6637   -2.2148   -3.3585 H         1 <0>         0.0816
     48 H10         2.2963   -2.0439   -2.6704 H         1 <0>         0.0948
     49 H11         0.4886   -4.4670   -2.2587 H         1 <0>         0.0730
     50 H12         3.4326   -3.9585   -1.6335 H         1 <0>         0.0657
     51 H13         2.1176   -4.0463   -0.4372 H         1 <0>         0.0596
     52 H14         3.3263   -6.2059   -0.5911 H         1 <0>         0.0645
     53 H15         1.6398   -6.3777   -1.1335 H         1 <0>         0.0598
     54 H16         4.0624   -5.9872   -2.9488 H         1 <0>         0.0634
     55 H17         3.1959   -7.5203   -2.6896 H         1 <0>         0.0647
     56 H18         2.4334   -6.4079   -4.7704 H         1 <0>         0.0663
     57 H19         1.1183   -6.4957   -3.5741 H         1 <0>         0.0610
     58 H20         1.2246   -4.2483   -4.6165 H         1 <0>         0.0632
     59 H21         2.9112   -4.0765   -4.0741 H         1 <0>         0.0661
     60 H22        -1.1654   -2.7503   -1.8766 H         1 <0>         0.4100
     61 H23        -2.7019   -3.1926   -1.8323 H         1 <0>         0.0781
     62 H24        -3.5446   -4.4496   -0.8906 H         1 <0>         0.0831
     63 H25        -4.3071   -1.4993   -1.0888 H         1 <0>         0.0644
     64 H26        -5.2017   -2.8764   -1.7770 H         1 <0>         0.0856
     65 H27        -6.2335   -2.1492    0.3480 H         1 <0>         0.0787
     66 H28        -5.5459   -3.7822    0.5152 H         1 <0>         0.0784
     67 H29        -3.3949   -4.1161    1.8153 H         1 <0>         0.0766
     68 H30        -2.4716   -2.6798    2.3272 H         1 <0>         0.1029
     69 H31        -3.3945   -2.4923    4.0313 H         1 <0>         0.0771
     70 H32        -4.0517   -0.8496    3.8368 H         1 <0>         0.0768
     71 H33        -5.9784   -1.4498    5.2778 H         1 <0>         0.0758
     72 H34        -5.3211   -3.0925    5.4723 H         1 <0>         0.0803
     73 H35        -3.2721   -2.1506    6.5033 H         1 <0>         0.0658
     74 H36        -3.9294   -0.5079    6.3088 H         1 <0>         0.0637
     75 H37        -5.8119   -2.0566    7.7350 H         1 <0>         0.4035
     76 H38        -5.7417   -2.3311   10.2544 H         1 <0>         0.1250
     77 H39        -5.2443    0.7603   10.4341 H         1 <0>         0.0988
     78 H40        -6.4517   -0.2041   11.4408 H         1 <0>         0.1071
     79 H41        -4.5542   -1.6046   12.3748 H         1 <0>         0.1060
     80 H42        -3.3468   -0.6401   11.3681 H         1 <0>         0.1081
     81 H43        -5.6258   -0.1057    1.4630 H         1 <0>         0.1246
     82 H44        -7.6866    1.2384    1.3782 H         1 <0>         0.1335
     83 H45        -9.6683    0.5367    2.6603 H         1 <0>         0.1358
     84 H46        -7.5295   -2.8625    4.1020 H         1 <0>         0.1414
     85 H47        -4.7573   -4.3492    3.0928 H         1 <0>         0.3791
     86 H48        -0.9525   -0.3525    0.0071 H         1 <0>         0.4205
@<TRIPOS>BOND
     1    1    2 1
     2    1   41 1
     3    1   42 1
     4    1   43 1
     5    2    3 1
     6    2   44 1
     7    2   86 1
     8    3    4 1
     9    3   45 1
    10    3   46 1
    11    4    5 1
    12    4    6 1
    13    4   13 1
    14    6    7 1
    15    6   47 1
    16    6   48 1
    17    7   12 1
    18    7    8 1
    19    7   49 1
    20    8    9 1
    21    8   50 1
    22    8   51 1
    23    9   10 1
    24    9   52 1
    25    9   53 1
    26   10   11 1
    27   10   54 1
    28   10   55 1
    29   11   12 1
    30   11   56 1
    31   11   57 1
    32   12   58 1
    33   12   59 1
    34   13   14 am
    35   13   60 1
    36   14   15 2
    37   14   16 am
    38   16   22 1
    39   16   17 1
    40   17   18 1
    41   17   61 1
    42   17   62 1
    43   18   19 1
    44   18   63 1
    45   18   64 1
    46   19   20 1
    47   19   65 1
    48   19   66 1
    49   20   21 1
    50   20   22 1
    51   20   23 1
    52   22   67 1
    53   22   68 1
    54   23   24 1
    55   23   33 1
    56   23   40 1
    57   24   25 1
    58   24   69 1
    59   24   70 1
    60   25   26 1
    61   25   71 1
    62   25   72 1
    63   26   27 1
    64   26   73 1
    65   26   74 1
    66   27   28 am
    67   27   75 1
    68   28   29 2
    69   28   30 1
    70   30   32 1
    71   30   31 1
    72   30   76 1
    73   31   32 1
    74   31   77 1
    75   31   78 1
    76   32   79 1
    77   32   80 1
    78   33   38 ar
    79   33   34 ar
    80   34   35 ar
    81   34   81 1
    82   35   36 ar
    83   35   82 1
    84   36   37 ar
    85   36   83 1
    86   37   38 ar
    87   37   39 1
    88   38   84 1
    89   40   85 1
@<TRIPOS>MOLECULE
CHEMBL54677
   79    82     0     0     0
SMALL
USER_CHARGES

@<TRIPOS>ATOM
      1 C1         -0.0187    1.5258    0.0104 C.3       1 <0>        -0.1561
      2 C2          0.0021   -0.0041    0.0020 C.3       1 <0>        -0.1286
      3 C3          0.7421   -0.5109    1.2415 C.3       1 <0>        -0.1454
      4 C4         -1.4333   -0.5336    0.0129 C.3       1 <0>         0.1141
      5 H1         -1.4190   -1.6203    0.0965 H         1 <0>         0.1054
      6 C5         -2.1352   -0.1312   -1.2857 C.3       1 <0>        -0.1849
      7 C6         -3.5271   -0.7649   -1.3306 C.3       1 <0>         0.1040
      8 H2         -4.0812   -0.4887   -0.4334 H         1 <0>         0.1194
      9 C7         -4.2760   -0.2636   -2.5670 C.3       1 <0>         0.1133
     10 H3         -4.3720    0.8211   -2.5187 H         1 <0>         0.1010
     11 C8         -5.6679   -0.8973   -2.6119 C.3       1 <0>        -0.1220
     12 C9         -6.4617   -0.3026   -3.7769 C.3       1 <0>        -0.0814
     13 C10        -6.7029    1.1866   -3.5222 C.3       1 <0>        -0.1044
     14 C11        -7.4967    1.7812   -4.6872 C.3       1 <0>        -0.1103
     15 C12        -8.8407    1.0604   -4.8092 C.3       1 <0>        -0.1206
     16 C13        -8.5994   -0.4288   -5.0640 C.3       1 <0>        -0.1170
     17 C14        -7.8057   -1.0235   -3.8990 C.3       1 <0>        -0.1154
     18 N1         -3.5314   -0.6348   -3.7728 N.am      1 <0>        -0.7175
     19 C15        -3.6799    0.0825   -4.9041 C.2       1 <0>         0.5137
     20 O1         -4.4301    1.0353   -4.9239 O.2       1 <0>        -0.5165
     21 C16        -2.9139   -0.2993   -6.1445 C.3       1 <0>         0.1393
     22 H4         -3.1818   -1.3140   -6.4390 H         1 <0>         0.1251
     23 C17        -1.4126   -0.2309   -5.8580 C.3       1 <0>        -0.0367
     24 C18        -0.6490   -0.7297   -7.0576 C.2       1 <0>         0.0046
     25 C19         0.3193   -0.0617   -7.7132 C.2       1 <0>        -0.0566
     26 N2          0.7409   -0.8737   -8.7313 N.pl3     1 <0>        -0.5700
     27 H5          1.4320   -0.6705   -9.3810 H         1 <0>         0.4175
     28 C20         0.0151   -2.0104   -8.6624 C.2       1 <0>         0.1963
     29 N3         -0.8106   -1.9192   -7.6560 N.2       1 <0>        -0.4535
     30 N4         -3.2469    0.6279   -7.2288 N.am      1 <0>        -0.7115
     31 C21        -3.1153    0.2387   -8.5124 C.2       1 <0>         0.5801
     32 O2         -2.7202   -0.8824   -8.7706 O.2       1 <0>        -0.4845
     33 C22        -3.4496    1.1694   -9.6009 C.2       1 <0>         0.0190
     34 C23        -3.3641    0.8923  -10.9282 C.2       1 <0>        -0.1070
     35 C24        -3.7735    2.0476  -11.6370 C.ar      1 <0>        -0.1204
     36 C25        -3.8900    2.3492  -13.0003 C.ar      1 <0>        -0.0612
     37 C26        -4.3237    3.5834  -13.3876 C.ar      1 <0>        -0.1482
     38 C27        -4.6516    4.5472  -12.4420 C.ar      1 <0>        -0.0860
     39 C28        -4.5452    4.2752  -11.0967 C.ar      1 <0>        -0.1340
     40 C29        -4.1057    3.0227  -10.6764 C.ar      1 <0>         0.1135
     41 N5         -3.9061    2.4629   -9.4367 N.pl3     1 <0>        -0.5785
     42 H6         -4.0585    2.9044   -8.5865 H         1 <0>         0.4170
     43 O3         -3.4013   -2.1869   -1.3939 O.3       1 <0>        -0.5476
     44 O4         -2.1371    0.0205    1.1263 O.3       1 <0>        -0.5559
     45 H7          1.0039    1.9031    0.0027 H         1 <0>         0.0594
     46 H8         -0.5459    1.8868   -0.8726 H         1 <0>         0.0564
     47 H9         -0.5289    1.8773    0.9072 H         1 <0>         0.0578
     48 H10         0.5123   -0.3556   -0.8948 H         1 <0>         0.0759
     49 H11         0.2319   -0.1594    2.1383 H         1 <0>         0.0614
     50 H12         0.7568   -1.6008    1.2356 H         1 <0>         0.0547
     51 H13         1.7647   -0.1336    1.2338 H         1 <0>         0.0531
     52 H14        -2.2286    0.9540   -1.3270 H         1 <0>         0.0789
     53 H15        -1.5503   -0.4783   -2.1375 H         1 <0>         0.0758
     54 H16        -5.5725   -1.9744   -2.7495 H         1 <0>         0.0710
     55 H17        -6.1894   -0.6953   -1.6763 H         1 <0>         0.0715
     56 H18        -5.8977   -0.4264   -4.7015 H         1 <0>         0.0740
     57 H19        -7.2669    1.3103   -2.5976 H         1 <0>         0.0462
     58 H20        -5.7454    1.7001   -3.4353 H         1 <0>         0.0765
     59 H21        -7.6686    2.8422   -4.5057 H         1 <0>         0.0523
     60 H22        -6.9328    1.6575   -5.6117 H         1 <0>         0.0614
     61 H23        -9.4046    1.1842   -3.8847 H         1 <0>         0.0579
     62 H24        -9.4062    1.4841   -5.6392 H         1 <0>         0.0555
     63 H25        -9.5569   -0.9424   -5.1509 H         1 <0>         0.0574
     64 H26        -8.0355   -0.5526   -5.9885 H         1 <0>         0.0571
     65 H27        -7.6338   -2.0844   -4.0804 H         1 <0>         0.0563
     66 H28        -8.3696   -0.8997   -2.9744 H         1 <0>         0.0585
     67 H29        -2.9314   -1.3968   -3.7570 H         1 <0>         0.3972
     68 H30        -1.1290    0.8008   -5.6501 H         1 <0>         0.0793
     69 H31        -1.1788   -0.8531   -4.9940 H         1 <0>         0.0844
     70 H32         0.6913    0.9251   -7.4806 H         1 <0>         0.1654
     71 H33         0.1059   -2.8565   -9.3275 H         1 <0>         0.2015
     72 H34        -3.5620    1.5219   -7.0229 H         1 <0>         0.4013
     73 H35        -3.0418   -0.0416  -11.3644 H         1 <0>         0.1528
     74 H36        -3.6367    1.6067  -13.7426 H         1 <0>         0.1250
     75 H37        -4.4127    3.8136  -14.4391 H         1 <0>         0.1250
     76 H38        -4.9931    5.5193  -12.7656 H         1 <0>         0.1280
     77 H39        -4.8018    5.0312  -10.3694 H         1 <0>         0.1225
     78 H40        -2.9179   -2.5049   -2.1687 H         1 <0>         0.3671
     79 H41        -2.1892    0.9861    1.1175 H         1 <0>         0.3700
@<TRIPOS>BOND
     1    1    2 1
     2    1   45 1
     3    1   46 1
     4    1   47 1
     5    2    3 1
     6    2    4 1
     7    2   48 1
     8    3   49 1
     9    3   50 1
    10    3   51 1
    11    4    5 1
    12    4    6 1
    13    4   44 1
    14    6    7 1
    15    6   52 1
    16    6   53 1
    17    7    8 1
    18    7    9 1
    19    7   43 1
    20    9   10 1
    21    9   11 1
    22    9   18 1
    23   11   12 1
    24   11   54 1
    25   11   55 1
    26   12   17 1
    27   12   13 1
    28   12   56 1
    29   13   14 1
    30   13   57 1
    31   13   58 1
    32   14   15 1
    33   14   59 1
    34   14   60 1
    35   15   16 1
    36   15   61 1
    37   15   62 1
    38   16   17 1
    39   16   63 1
    40   16   64 1
    41   17   65 1
    42   17   66 1
    43   18   19 am
    44   18   67 1
    45   19   20 2
    46   19   21 1
    47   21   22 1
    48   21   23 1
    49   21   30 1
    50   23   24 1
    51   23   68 1
    52   23   69 1
    53   24   29 1
    54   24   25 2
    55   25   26 1
    56   25   70 1
    57   26   27 1
    58   26   28 1
    59   28   29 2
    60   28   71 1
    61   30   31 am
    62   30   72 1
    63   31   32 2
    64   31   33 1
    65   33   41 1
    66   33   34 2
    67   34   35 1
    68   34   73 1
    69   35   40 ar
    70   35   36 ar
    71   36   37 ar
    72   36   74 1
    73   37   38 ar
    74   37   75 1
    75   38   39 ar
    76   38   76 1
    77   39   40 ar
    78   39   77 1
    79   40   41 1
    80   41   42 1
    81   43   78 1
    82   44   79 1
@<TRIPOS>MOLECULE
CHEMBL54677__1
   80    83     0     0     0
SMALL
USER_CHARGES

@<TRIPOS>ATOM
      1 C1         -0.0187    1.5258    0.0104 C.3       1 <0>        -0.1451
      2 C2          0.0021   -0.0041    0.0020 C.3       1 <0>        -0.1278
      3 C3          0.7421   -0.5109    1.2415 C.3       1 <0>        -0.1507
      4 C4         -1.4333   -0.5336    0.0129 C.3       1 <0>         0.1151
      5 H1         -1.9435   -0.1821    0.9097 H         1 <0>         0.1054
      6 C5         -1.4126   -2.0635    0.0045 C.3       1 <0>        -0.1514
      7 C6         -2.8413   -2.5937    0.1410 C.3       1 <0>         0.1011
      8 H2         -3.4650   -2.1632   -0.6424 H         1 <0>         0.0646
      9 C7         -2.8345   -4.1178    0.0076 C.3       1 <0>         0.1085
     10 H3         -2.2108   -4.5483    0.7911 H         1 <0>         0.1056
     11 C8         -2.2746   -4.5075   -1.3619 C.3       1 <0>        -0.1284
     12 C9         -2.1513   -6.0301   -1.4480 C.3       1 <0>        -0.0826
     13 C10        -1.1141   -6.5159   -0.4335 C.3       1 <0>        -0.1176
     14 C11        -0.9908   -8.0385   -0.5196 C.3       1 <0>        -0.1189
     15 C12        -0.5497   -8.4355   -1.9298 C.3       1 <0>        -0.1228
     16 C13        -1.5869   -7.9497   -2.9443 C.3       1 <0>        -0.1195
     17 C14        -1.7103   -6.4271   -2.8582 C.3       1 <0>        -0.1153
     18 N1         -4.2025   -4.6255    0.1384 N.am      1 <0>        -0.7151
     19 C15        -4.7190   -4.8639    1.3602 C.2       1 <0>         0.5024
     20 O1         -4.0512   -4.6581    2.3515 O.2       1 <0>        -0.5017
     21 C16        -6.1262   -5.3861    1.4947 C.3       1 <0>         0.1289
     22 H4         -6.2085   -6.3447    0.9824 H         1 <0>         0.1304
     23 C17        -7.1026   -4.3880    0.8690 C.3       1 <0>        -0.0721
     24 C18        -8.4947   -4.9646    0.8932 C.2       1 <0>         0.0365
     25 C19        -9.0223   -5.7973   -0.0243 C.2       1 <0>         0.0546
     26 N2        -10.3003   -6.0740    0.3805 N.pl3     1 <0>        -0.5011
     27 H5        -10.9369   -6.6470   -0.0747 H         1 <0>         0.4666
     28 C20       -10.5092   -5.4003    1.5321 C.cat     1 <0>         0.3138
     29 N3         -9.4233   -4.7430    1.8352 N.pl3     1 <0>        -0.4725
     30 N4         -6.4487   -5.5610    2.9130 N.am      1 <0>        -0.7158
     31 C21        -7.3925   -6.4484    3.2850 C.2       1 <0>         0.5909
     32 O2         -7.9765   -7.1040    2.4431 O.2       1 <0>        -0.5277
     33 C22        -7.7162   -6.6240    4.7087 C.2       1 <0>        -0.0161
     34 C23        -8.6399   -7.4876    5.2057 C.2       1 <0>        -0.0855
     35 C24        -8.6450   -7.3494    6.6148 C.ar      1 <0>        -0.1284
     36 C25        -9.3745   -7.9664    7.6396 C.ar      1 <0>        -0.0590
     37 C26        -9.1518   -7.6135    8.9385 C.ar      1 <0>        -0.1413
     38 C27        -8.2071   -6.6456    9.2568 C.ar      1 <0>        -0.0717
     39 C28        -7.4780   -6.0246    8.2679 C.ar      1 <0>        -0.1374
     40 C29        -7.6864   -6.3682    6.9349 C.ar      1 <0>         0.1242
     41 N5         -7.1254   -5.9415    5.7545 N.pl3     1 <0>        -0.5795
     42 H6         -6.4307   -5.2699    5.6697 H         1 <0>         0.4188
     43 O3         -3.3642   -2.2297    1.4201 O.3       1 <0>        -0.5449
     44 O4         -2.1245   -0.0603   -1.1448 O.3       1 <0>        -0.5600
     45 H7          1.0039    1.9031    0.0027 H         1 <0>         0.0553
     46 H8         -0.5459    1.8868   -0.8726 H         1 <0>         0.0610
     47 H9         -0.5289    1.8773    0.9072 H         1 <0>         0.0543
     48 H10         0.5123   -0.3556   -0.8948 H         1 <0>         0.0711
     49 H11         0.2319   -0.1594    2.1383 H         1 <0>         0.0577
     50 H12         0.7568   -1.6008    1.2356 H         1 <0>         0.0574
     51 H13         1.7647   -0.1336    1.2338 H         1 <0>         0.0592
     52 H14        -0.9823   -2.4159   -0.9330 H         1 <0>         0.0843
     53 H15        -0.8102   -2.4233    0.8386 H         1 <0>         0.0880
     54 H16        -2.9465   -4.1526   -2.1434 H         1 <0>         0.0740
     55 H17        -1.2918   -4.0553   -1.4946 H         1 <0>         0.0896
     56 H18        -3.1166   -6.4859   -1.2274 H         1 <0>         0.0674
     57 H19        -0.1489   -6.0602   -0.6541 H         1 <0>         0.0649
     58 H20        -1.4284   -6.2331    0.5712 H         1 <0>         0.0602
     59 H21        -0.2519   -8.3846    0.2031 H         1 <0>         0.0624
     60 H22        -1.9561   -8.4943   -0.2990 H         1 <0>         0.0573
     61 H23         0.4155   -7.9798   -2.1505 H         1 <0>         0.0633
     62 H24        -0.4619   -9.5202   -1.9912 H         1 <0>         0.0623
     63 H25        -1.2727   -8.2325   -3.9490 H         1 <0>         0.0638
     64 H26        -2.5522   -8.4055   -2.7237 H         1 <0>         0.0588
     65 H27        -2.4492   -6.0810   -3.5809 H         1 <0>         0.0617
     66 H28        -0.7450   -5.9713   -3.0788 H         1 <0>         0.0649
     67 H29        -4.7366   -4.7901   -0.6545 H         1 <0>         0.4026
     68 H30        -7.0847   -3.4577    1.4368 H         1 <0>         0.1071
     69 H31        -6.8090   -4.1901   -0.1619 H         1 <0>         0.1268
     70 H32        -8.5317   -6.1740   -0.9096 H         1 <0>         0.2227
     71 H33       -11.4223   -5.4076    2.1089 H         1 <0>         0.2627
     72 H34        -5.9830   -5.0383    3.5844 H         1 <0>         0.4137
     73 H35        -9.2592   -8.1589    4.6294 H         1 <0>         0.1544
     74 H36       -10.1114   -8.7193    7.4018 H         1 <0>         0.1286
     75 H37        -9.7153   -8.0906    9.7267 H         1 <0>         0.1308
     76 H38        -8.0434   -6.3776   10.2901 H         1 <0>         0.1342
     77 H39        -6.7464   -5.2729    8.5253 H         1 <0>         0.1272
     78 H40        -4.2688   -2.5338    1.5762 H         1 <0>         0.3626
     79 H41        -1.7251   -0.3356   -1.9813 H         1 <0>         0.3711
     80 H42        -9.3068   -4.1813    2.6174 H         1 <0>         0.4589
@<TRIPOS>BOND
     1    1    2 1
     2    1   45 1
     3    1   46 1
     4    1   47 1
     5    2    3 1
     6    2    4 1
     7    2   48 1
     8    3   49 1
     9    3   50 1
    10    3   51 1
    11    4    5 1
    12    4    6 1
    13    4   44 1
    14    6    7 1
    15    6   52 1
    16    6   53 1
    17    7    8 1
    18    7    9 1
    19    7   43 1
    20    9   10 1
    21    9   11 1
    22    9   18 1
    23   11   12 1
    24   11   54 1
    25   11   55 1
    26   12   17 1
    27   12   13 1
    28   12   56 1
    29   13   14 1
    30   13   57 1
    31   13   58 1
    32   14   15 1
    33   14   59 1
    34   14   60 1
    35   15   16 1
    36   15   61 1
    37   15   62 1
    38   16   17 1
    39   16   63 1
    40   16   64 1
    41   17   65 1
    42   17   66 1
    43   18   19 am
    44   18   67 1
    45   19   20 2
    46   19   21 1
    47   21   22 1
    48   21   23 1
    49   21   30 1
    50   23   24 1
    51   23   68 1
    52   23   69 1
    53   24   29 1
    54   24   25 2
    55   25   26 1
    56   25   70 1
    57   26   27 1
    58   26   28 1
    59   28   29 2
    60   28   71 1
    61   29   80 1
    62   30   31 am
    63   30   72 1
    64   31   32 2
    65   31   33 1
    66   33   41 1
    67   33   34 2
    68   34   35 1
    69   34   73 1
    70   35   40 ar
    71   35   36 ar
    72   36   37 ar
    73   36   74 1
    74   37   38 ar
    75   37   75 1
    76   38   39 ar
    77   38   76 1
    78   39   40 ar
    79   39   77 1
    80   40   41 1
    81   41   42 1
    82   43   78 1
    83   44   79 1
@<TRIPOS>MOLECULE
CHEMBL54677__2
   79    82     0     0     0
SMALL
USER_CHARGES

@<TRIPOS>ATOM
      1 C1         -0.0187    1.5258    0.0104 C.3       1 <0>        -0.1559
      2 C2          0.0021   -0.0041    0.0020 C.3       1 <0>        -0.1296
      3 C3          0.7182   -0.4975   -1.2568 C.3       1 <0>        -0.1448
      4 C4          0.7421   -0.5109    1.2415 C.3       1 <0>         0.1147
      5 H1          0.8346   -1.5958    1.1912 H         1 <0>         0.1064
      6 C5         -0.0416   -0.1236    2.4973 C.3       1 <0>        -0.1470
      7 C6          0.6310   -0.7363    3.7274 C.3       1 <0>         0.1001
      8 H2          1.6777   -0.4337    3.7577 H         1 <0>         0.0631
      9 C7         -0.0779   -0.2483    4.9924 C.3       1 <0>         0.1096
     10 H3         -1.1246   -0.5509    4.9620 H         1 <0>         0.1029
     11 C8          0.0099    1.2772    5.0698 C.3       1 <0>        -0.1267
     12 C9         -0.8039    1.7748    6.2661 C.3       1 <0>        -0.0847
     13 C10        -2.2851    1.4656    6.0393 C.3       1 <0>        -0.1163
     14 C11        -3.0989    1.9632    7.2356 C.3       1 <0>        -0.1197
     15 C12        -2.9107    3.4740    7.3875 C.3       1 <0>        -0.1207
     16 C13        -1.4296    3.7832    7.6142 C.3       1 <0>        -0.1200
     17 C14        -0.6157    3.2856    6.4180 C.3       1 <0>        -0.1139
     18 N1          0.5661   -0.8349    6.1702 N.am      1 <0>        -0.7200
     19 C15         0.2036   -2.0612    6.5958 C.2       1 <0>         0.5061
     20 O1         -0.6559   -2.6791    6.0037 O.2       1 <0>        -0.5117
     21 C16         0.8660   -2.6647    7.8074 C.3       1 <0>         0.1369
     22 H4          0.6940   -2.0242    8.6724 H         1 <0>         0.1166
     23 C17         2.3702   -2.7902    7.5569 C.3       1 <0>        -0.0509
     24 C18         3.0493   -3.2782    8.8105 C.2       1 <0>        -0.0224
     25 C19         3.1896   -4.5595    9.2007 C.2       1 <0>         0.0011
     26 N2          3.8508   -4.5679   10.3677 N.2       1 <0>        -0.4837
     27 H5          3.7127   -1.5370    9.7687 H         1 <0>         0.4147
     28 C20         4.1254   -3.3404   10.7155 C.2       1 <0>         0.1932
     29 N3          3.6472   -2.5048    9.7686 N.pl3     1 <0>        -0.5603
     30 N4          0.3011   -3.9921    8.0626 N.am      1 <0>        -0.7145
     31 C21         0.3340   -4.5108    9.3061 C.2       1 <0>         0.5919
     32 O2          0.8329   -3.8769   10.2166 O.2       1 <0>        -0.4994
     33 C22        -0.2331   -5.8433    9.5622 C.2       1 <0>         0.0124
     34 C23        -0.2643   -6.4674   10.7686 C.2       1 <0>        -0.0942
     35 C24        -0.8904   -7.7244   10.5877 C.ar      1 <0>        -0.1217
     36 C25        -1.1962   -8.7809   11.4555 C.ar      1 <0>        -0.0583
     37 C26        -1.8198   -9.8951   10.9749 C.ar      1 <0>        -0.1492
     38 C27        -2.1554   -9.9938    9.6303 C.ar      1 <0>        -0.0844
     39 C28        -1.8651   -8.9694    8.7575 C.ar      1 <0>        -0.1352
     40 C29        -1.2300   -7.8216    9.2241 C.ar      1 <0>         0.1166
     41 N5         -0.8243   -6.6575    8.6156 N.pl3     1 <0>        -0.5797
     42 H6         -0.9331   -6.4440    7.6757 H         1 <0>         0.4170
     43 O3          0.5490   -2.1611    3.6550 O.3       1 <0>        -0.5483
     44 O4          2.0438    0.0763    1.2925 O.3       1 <0>        -0.5580
     45 H7          1.0039    1.9031    0.0027 H         1 <0>         0.0575
     46 H8         -0.5459    1.8868   -0.8726 H         1 <0>         0.0602
     47 H9         -0.5289    1.8773    0.9072 H         1 <0>         0.0563
     48 H10        -1.0205   -0.3814    0.0098 H         1 <0>         0.0776
     49 H11         1.7408   -0.1202   -1.2645 H         1 <0>         0.0608
     50 H12         0.7330   -1.5874   -1.2628 H         1 <0>         0.0544
     51 H13         0.1910   -0.1364   -2.1398 H         1 <0>         0.0534
     52 H14        -0.0580    0.9619    2.5950 H         1 <0>         0.0844
     53 H15        -1.0627   -0.4967    2.4178 H         1 <0>         0.0817
     54 H16         1.0514    1.5756    5.1896 H         1 <0>         0.0724
     55 H17        -0.3893    1.7112    4.1531 H         1 <0>         0.0859
     56 H18        -0.4625    1.2733    7.1716 H         1 <0>         0.0698
     57 H19        -2.6264    1.9672    5.1338 H         1 <0>         0.0627
     58 H20        -2.4191    0.3893    5.9311 H         1 <0>         0.0621
     59 H21        -4.1541    1.7429    7.0740 H         1 <0>         0.0614
     60 H22        -2.7575    1.4617    8.1411 H         1 <0>         0.0591
     61 H23        -3.2521    3.9755    6.4819 H         1 <0>         0.0615
     62 H24        -3.4905    3.8284    8.2397 H         1 <0>         0.0607
     63 H25        -1.2955    4.8595    7.7225 H         1 <0>         0.0620
     64 H26        -1.0882    3.2816    8.5198 H         1 <0>         0.0601
     65 H27         0.4395    3.5059    6.5796 H         1 <0>         0.0613
     66 H28        -0.9571    3.7871    5.5124 H         1 <0>         0.0630
     67 H29         1.2535   -0.3408    6.6437 H         1 <0>         0.4020
     68 H30         2.5459   -3.5000    6.7486 H         1 <0>         0.0965
     69 H31         2.7748   -1.8167    7.2799 H         1 <0>         0.0843
     70 H32         2.8325   -5.4281    8.6673 H         1 <0>         0.1532
     71 H33         4.6511   -3.0425   11.6107 H         1 <0>         0.2039
     72 H34        -0.0967   -4.4976    7.3366 H         1 <0>         0.4057
     73 H35         0.1196   -6.0751   11.6988 H         1 <0>         0.1547
     74 H36        -0.9386   -8.7136   12.5022 H         1 <0>         0.1259
     75 H37        -2.0545  -10.7082   11.6459 H         1 <0>         0.1250
     76 H38        -2.6485  -10.8829    9.2660 H         1 <0>         0.1279
     77 H39        -2.1294   -9.0558    7.7139 H         1 <0>         0.1228
     78 H40         0.9563   -2.6171    4.4042 H         1 <0>         0.3693
     79 H41         2.0381    1.0422    1.3386 H         1 <0>         0.3683
@<TRIPOS>BOND
     1    1    2 1
     2    1   45 1
     3    1   46 1
     4    1   47 1
     5    2    3 1
     6    2    4 1
     7    2   48 1
     8    3   49 1
     9    3   50 1
    10    3   51 1
    11    4    5 1
    12    4    6 1
    13    4   44 1
    14    6    7 1
    15    6   52 1
    16    6   53 1
    17    7    8 1
    18    7    9 1
    19    7   43 1
    20    9   10 1
    21    9   11 1
    22    9   18 1
    23   11   12 1
    24   11   54 1
    25   11   55 1
    26   12   17 1
    27   12   13 1
    28   12   56 1
    29   13   14 1
    30   13   57 1
    31   13   58 1
    32   14   15 1
    33   14   59 1
    34   14   60 1
    35   15   16 1
    36   15   61 1
    37   15   62 1
    38   16   17 1
    39   16   63 1
    40   16   64 1
    41   17   65 1
    42   17   66 1
    43   18   19 am
    44   18   67 1
    45   19   20 2
    46   19   21 1
    47   21   22 1
    48   21   23 1
    49   21   30 1
    50   23   68 1
    51   23   69 1
    52   23   24 1
    53   24   25 2
    54   24   29 1
    55   25   26 1
    56   25   70 1
    57   26   28 2
    58   27   29 1
    59   28   71 1
    60   28   29 1
    61   30   31 am
    62   30   72 1
    63   31   32 2
    64   31   33 1
    65   33   41 1
    66   33   34 2
    67   34   35 1
    68   34   73 1
    69   35   40 ar
    70   35   36 ar
    71   36   37 ar
    72   36   74 1
    73   37   38 ar
    74   37   75 1
    75   38   39 ar
    76   38   76 1
    77   39   40 ar
    78   39   77 1
    79   40   41 1
    80   41   42 1
    81   43   78 1
    82   44   79 1
@<TRIPOS>MOLECULE
CHEMBL426642
   72    76     0     0     0
SMALL
USER_CHARGES

@<TRIPOS>ATOM
      1 C1          1.1635    1.7120   -1.5474 C.3       1 <0>         0.0269
      2 O1          1.0901    0.3062   -1.3019 O.3       1 <0>        -0.3181
      3 C2         -0.1215   -0.1953   -0.9447 C.ar      1 <0>         0.1305
      4 C3         -1.2185    0.6475   -0.8384 C.ar      1 <0>        -0.2077
      5 C4         -2.4489    0.1353   -0.4756 C.ar      1 <0>        -0.0800
      6 C5         -2.5879   -1.2164   -0.2185 C.ar      1 <0>        -0.1573
      7 C6         -1.4963   -2.0581   -0.3233 C.ar      1 <0>        -0.0591
      8 C7         -0.2647   -1.5516   -0.6914 C.ar      1 <0>        -0.1229
      9 C8          0.9235   -2.4708   -0.8116 C.3       1 <0>         0.1169
     10 O2          0.5244   -3.8078   -0.5033 O.3       1 <0>        -0.3832
     11 C9          1.5827   -4.7644   -0.5879 C.3       1 <0>         0.0682
     12 C10         1.0438   -6.1533   -0.2394 C.3       1 <0>        -0.1184
     13 C11         2.1769   -7.1774   -0.3300 C.3       1 <0>         0.0625
     14 O3          1.6736   -8.4747   -0.0045 O.3       1 <0>        -0.3104
     15 C12         2.5586   -9.5063   -0.0376 C.ar      1 <0>         0.1360
     16 C13         3.8846   -9.2718   -0.3709 C.ar      1 <0>        -0.1982
     17 C14         4.7840  -10.3191   -0.4046 C.ar      1 <0>        -0.0508
     18 C15         4.3609  -11.6071   -0.1048 C.ar      1 <0>         0.0962
     19 C16         3.0335  -11.8411    0.2287 C.ar      1 <0>        -0.0823
     20 C17         2.1364  -10.7920    0.2676 C.ar      1 <0>        -0.1424
     21 N1          5.2728  -12.6702   -0.1393 N.am      1 <0>        -0.5543
     22 C18         5.1199  -13.6870   -1.1760 C.3       1 <0>         0.1113
     23 H1          4.3141  -14.3670   -0.8995 H         1 <0>         0.0998
     24 C19         6.4204  -14.4775   -1.3308 C.3       1 <0>         0.0446
     25 N2          6.8593  -14.9306   -0.0010 N.3       1 <0>        -0.6726
     26 C20         7.2937  -13.7835    0.8073 C.3       1 <0>         0.0471
     27 C21         6.2475  -12.7056    0.7754 C.2       1 <0>         0.4855
     28 O4          6.2860  -11.8337    1.6176 O.2       1 <0>        -0.5279
     29 C22         4.7791  -13.0097   -2.5049 C.3       1 <0>         0.0480
     30 O5          5.8747  -12.1897   -2.9164 O.3       1 <0>        -0.3011
     31 C23         5.7335  -11.5131   -4.0857 C.ar      1 <0>         0.1516
     32 C24         4.5478  -11.6401   -4.8169 C.ar      1 <0>        -0.1892
     33 C25         4.3788  -10.9749   -5.9910 C.ar      1 <0>        -0.0525
     34 C26         5.4064  -10.1491   -6.4771 C.ar      1 <0>        -0.1354
     35 C27         5.2679   -9.4449   -7.6872 C.ar      1 <0>        -0.0445
     36 C28         6.3075   -8.6599   -8.0993 C.ar      1 <0>        -0.1882
     37 C29         7.4630   -8.5742   -7.3267 C.ar      1 <0>         0.1442
     38 N3          7.5894   -9.2319   -6.1995 N.ar      1 <0>        -0.4808
     39 C30         6.6095  -10.0171   -5.7393 C.ar      1 <0>         0.1652
     40 C31         6.7491  -10.7141   -4.5281 C.ar      1 <0>        -0.1426
     41 H2          2.1834    1.9800   -1.8230 H         1 <0>         0.1014
     42 H3          0.4865    1.9748   -2.3603 H         1 <0>         0.0566
     43 H4          0.8764    2.2537   -0.6461 H         1 <0>         0.0567
     44 H5         -1.1104    1.7033   -1.0387 H         1 <0>         0.1299
     45 H6         -3.3030    0.7910   -0.3924 H         1 <0>         0.1257
     46 H7         -3.5508   -1.6150    0.0650 H         1 <0>         0.1258
     47 H8         -1.6073   -3.1133   -0.1217 H         1 <0>         0.1394
     48 H9          1.3108   -2.4328   -1.8297 H         1 <0>         0.0639
     49 H10         1.7000   -2.1537   -0.1154 H         1 <0>         0.0642
     50 H11         1.9836   -4.7740   -1.6014 H         1 <0>         0.0539
     51 H12         2.3729   -4.4949    0.1129 H         1 <0>         0.0546
     52 H13         0.6429   -6.1437    0.7741 H         1 <0>         0.0849
     53 H14         0.2536   -6.4228   -0.9402 H         1 <0>         0.0842
     54 H15         2.5778   -7.1870   -1.3435 H         1 <0>         0.0652
     55 H16         2.9671   -6.9080    0.3708 H         1 <0>         0.0665
     56 H17         4.2136   -8.2700   -0.6044 H         1 <0>         0.1309
     57 H18         5.8162  -10.1364   -0.6644 H         1 <0>         0.1249
     58 H19         2.7037  -12.8428    0.4616 H         1 <0>         0.1301
     59 H20         1.1049  -10.9732    0.5313 H         1 <0>         0.1365
     60 H21         6.2489  -15.3413   -1.9731 H         1 <0>         0.1040
     61 H22         7.1864  -13.8387   -1.7705 H         1 <0>         0.0986
     62 H23         6.1274  -15.4451    0.4655 H         1 <0>         0.3494
     63 H24         7.4537  -14.1057    1.8362 H         1 <0>         0.1165
     64 H25         8.2265  -13.3893    0.4040 H         1 <0>         0.1147
     65 H26         4.5899  -13.7703   -3.2623 H         1 <0>         0.0826
     66 H27         3.8897  -12.3919   -2.3802 H         1 <0>         0.0749
     67 H28         3.7569  -12.2745   -4.4446 H         1 <0>         0.1334
     68 H29         3.4592  -11.0813   -6.5473 H         1 <0>         0.1356
     69 H30         4.3649   -9.5230   -8.2744 H         1 <0>         0.1389
     70 H31         6.2333   -8.1065   -9.0238 H         1 <0>         0.1388
     71 H32         8.2766   -7.9497   -7.6650 H         1 <0>         0.1610
     72 H33         7.6572  -10.6218   -3.9508 H         1 <0>         0.1415
@<TRIPOS>BOND
     1    1    2 1
     2    1   41 1
     3    1   42 1
     4    1   43 1
     5    2    3 1
     6    3    8 ar
     7    3    4 ar
     8    4    5 ar
     9    4   44 1
    10    5    6 ar
    11    5   45 1
    12    6    7 ar
    13    6   46 1
    14    7    8 ar
    15    7   47 1
    16    8    9 1
    17    9   10 1
    18    9   48 1
    19    9   49 1
    20   10   11 1
    21   11   12 1
    22   11   50 1
    23   11   51 1
    24   12   13 1
    25   12   52 1
    26   12   53 1
    27   13   14 1
    28   13   54 1
    29   13   55 1
    30   14   15 1
    31   15   20 ar
    32   15   16 ar
    33   16   17 ar
    34   16   56 1
    35   17   18 ar
    36   17   57 1
    37   18   19 ar
    38   18   21 1
    39   19   20 ar
    40   19   58 1
    41   20   59 1
    42   21   27 am
    43   21   22 1
    44   22   23 1
    45   22   24 1
    46   22   29 1
    47   24   25 1
    48   24   60 1
    49   24   61 1
    50   25   26 1
    51   25   62 1
    52   26   27 1
    53   26   63 1
    54   26   64 1
    55   27   28 2
    56   29   30 1
    57   29   65 1
    58   29   66 1
    59   30   31 1
    60   31   40 ar
    61   31   32 ar
    62   32   33 ar
    63   32   67 1
    64   33   34 ar
    65   33   68 1
    66   34   39 ar
    67   34   35 ar
    68   35   36 ar
    69   35   69 1
    70   36   37 ar
    71   36   70 1
    72   37   38 ar
    73   37   71 1
    74   38   39 ar
    75   39   40 ar
    76   40   72 1
@<TRIPOS>MOLECULE
CHEMBL426642__1
   73    77     0     0     0
SMALL
USER_CHARGES

@<TRIPOS>ATOM
      1 C1          1.1434    1.6990   -1.8241 C.3       1 <0>         0.0265
      2 O1          1.0748    0.2991   -1.5452 O.3       1 <0>        -0.3191
      3 C2         -0.1306   -0.1943   -1.1572 C.ar      1 <0>         0.1307
      4 C3         -1.2263    0.6506   -1.0527 C.ar      1 <0>        -0.2068
      5 C4         -2.4504    0.1466   -0.6587 C.ar      1 <0>        -0.0783
      6 C5         -2.5845   -1.1988   -0.3684 C.ar      1 <0>        -0.1570
      7 C6         -1.4943   -2.0426   -0.4713 C.ar      1 <0>        -0.0594
      8 C7         -0.2690   -1.5444   -0.8705 C.ar      1 <0>        -0.1254
      9 C8          0.9176   -2.4659   -0.9885 C.3       1 <0>         0.1183
     10 O2          0.5243   -3.7956   -0.6433 O.3       1 <0>        -0.3820
     11 C9          1.5816   -4.7536   -0.7228 C.3       1 <0>         0.0691
     12 C10         1.0492   -6.1342   -0.3339 C.3       1 <0>        -0.1200
     13 C11         2.1812   -7.1599   -0.4190 C.3       1 <0>         0.0638
     14 O3          1.6839   -8.4494   -0.0558 O.3       1 <0>        -0.3046
     15 C12         2.5689   -9.4814   -0.0792 C.ar      1 <0>         0.1588
     16 C13         3.8893   -9.2544   -0.4390 C.ar      1 <0>        -0.1998
     17 C14         4.7886  -10.3020   -0.4631 C.ar      1 <0>        -0.0521
     18 C15         4.3710  -11.5828   -0.1270 C.ar      1 <0>         0.0814
     19 C16         3.0493  -11.8094    0.2330 C.ar      1 <0>        -0.0466
     20 C17         2.1524  -10.7599    0.2621 C.ar      1 <0>        -0.1407
     21 N1          5.2829  -12.6463   -0.1516 N.am      1 <0>        -0.5516
     22 C18         5.1259  -13.6815   -1.1703 C.3       1 <0>         0.1189
     23 H1          4.3159  -14.3521   -0.8832 H         1 <0>         0.1210
     24 C19         6.4236  -14.4805   -1.3049 C.3       1 <0>        -0.0164
     25 N2          6.8488  -14.9230    0.0322 N.4       1 <0>        -0.5024
     26 C20         7.3046  -13.7553    0.7967 C.3       1 <0>        -0.0142
     27 C21         6.2661  -12.6706    0.7554 C.2       1 <0>         0.4926
     28 O4          6.3186  -11.7832    1.5806 O.2       1 <0>        -0.4675
     29 C22         4.7924  -13.0273   -2.5125 C.3       1 <0>         0.0495
     30 O5          3.5187  -12.3850   -2.4260 O.3       1 <0>        -0.2924
     31 C23         3.0321  -11.8246   -3.5636 C.ar      1 <0>         0.1373
     32 C24         3.8283  -11.7960   -4.7133 C.ar      1 <0>        -0.1958
     33 C25         3.3674  -11.2411   -5.8663 C.ar      1 <0>        -0.0485
     34 C26         2.0757  -10.6896   -5.9053 C.ar      1 <0>        -0.1331
     35 C27         1.5642  -10.1075   -7.0795 C.ar      1 <0>        -0.0467
     36 C28         0.2999   -9.5907   -7.0456 C.ar      1 <0>        -0.1802
     37 C29        -0.4441   -9.6497   -5.8698 C.ar      1 <0>         0.1502
     38 N3          0.0353  -10.1925   -4.7767 N.ar      1 <0>        -0.4780
     39 C30         1.2652  -10.7167   -4.7427 C.ar      1 <0>         0.1636
     40 C31         1.7702  -11.3020   -3.5702 C.ar      1 <0>        -0.1256
     41 H2          2.1587    1.9607   -2.1220 H         1 <0>         0.1016
     42 H3          0.4534    1.9428   -2.6319 H         1 <0>         0.0573
     43 H4          0.8705    2.2612   -0.9310 H         1 <0>         0.0574
     44 H5         -1.1220    1.7014   -1.2790 H         1 <0>         0.1306
     45 H6         -3.3035    0.8038   -0.5769 H         1 <0>         0.1267
     46 H7         -3.5425   -1.5910   -0.0604 H         1 <0>         0.1263
     47 H8         -1.6015   -3.0929   -0.2437 H         1 <0>         0.1387
     48 H9          1.2885   -2.4512   -2.0134 H         1 <0>         0.0635
     49 H10         1.7050   -2.1327   -0.3124 H         1 <0>         0.0639
     50 H11         1.9663   -4.7864   -1.7421 H         1 <0>         0.0526
     51 H12         2.3828   -4.4679   -0.0411 H         1 <0>         0.0536
     52 H13         0.6645   -6.1014    0.6854 H         1 <0>         0.0863
     53 H14         0.2480   -6.4199   -1.0156 H         1 <0>         0.0863
     54 H15         2.5659   -7.1928   -1.4383 H         1 <0>         0.0656
     55 H16         2.9824   -6.8743    0.2627 H         1 <0>         0.0672
     56 H17         4.2139   -8.2581   -0.7007 H         1 <0>         0.1332
     57 H18         5.8165  -10.1251   -0.7435 H         1 <0>         0.1194
     58 H19         2.7238  -12.8055    0.4941 H         1 <0>         0.1276
     59 H20         1.1253  -10.9351    0.5464 H         1 <0>         0.1399
     60 H21         6.2532  -15.3496   -1.9403 H         1 <0>         0.1647
     61 H22         7.1968  -13.8502   -1.7443 H         1 <0>         0.1480
     62 H23         6.0715  -15.3560    0.5079 H         1 <0>         0.4384
     63 H24         7.4838  -14.0483    1.8312 H         1 <0>         0.1734
     64 H25         8.2318  -13.3795    0.3640 H         1 <0>         0.1675
     65 H26         5.5559  -12.2886   -2.7564 H         1 <0>         0.0796
     66 H27         4.7627  -13.7897   -3.2909 H         1 <0>         0.0911
     67 H28         4.8214  -12.2195   -4.6850 H         1 <0>         0.1291
     68 H29         3.9915  -11.2241   -6.7476 H         1 <0>         0.1365
     69 H30         2.1549  -10.0698   -7.9829 H         1 <0>         0.1411
     70 H31        -0.1222   -9.1365   -7.9299 H         1 <0>         0.1425
     71 H32        -1.4421   -9.2371   -5.8578 H         1 <0>         0.1647
     72 H33         1.1648  -11.3352   -2.6765 H         1 <0>         0.1425
     73 H34         7.6048  -15.5854   -0.0557 H         1 <0>         0.4459
@<TRIPOS>BOND
     1    1    2 1
     2    1   41 1
     3    1   42 1
     4    1   43 1
     5    2    3 1
     6    3    8 ar
     7    3    4 ar
     8    4    5 ar
     9    4   44 1
    10    5    6 ar
    11    5   45 1
    12    6    7 ar
    13    6   46 1
    14    7    8 ar
    15    7   47 1
    16    8    9 1
    17    9   10 1
    18    9   48 1
    19    9   49 1
    20   10   11 1
    21   11   12 1
    22   11   50 1
    23   11   51 1
    24   12   13 1
    25   12   52 1
    26   12   53 1
    27   13   14 1
    28   13   54 1
    29   13   55 1
    30   14   15 1
    31   15   20 ar
    32   15   16 ar
    33   16   17 ar
    34   16   56 1
    35   17   18 ar
    36   17   57 1
    37   18   19 ar
    38   18   21 1
    39   19   20 ar
    40   19   58 1
    41   20   59 1
    42   21   27 am
    43   21   22 1
    44   22   23 1
    45   22   24 1
    46   22   29 1
    47   24   25 1
    48   24   60 1
    49   24   61 1
    50   25   26 1
    51   25   62 1
    52   25   73 1
    53   26   27 1
    54   26   63 1
    55   26   64 1
    56   27   28 2
    57   29   30 1
    58   29   65 1
    59   29   66 1
    60   30   31 1
    61   31   40 ar
    62   31   32 ar
    63   32   33 ar
    64   32   67 1
    65   33   34 ar
    66   33   68 1
    67   34   39 ar
    68   34   35 ar
    69   35   36 ar
    70   35   69 1
    71   36   37 ar
    72   36   70 1
    73   37   38 ar
    74   37   71 1
    75   38   39 ar
    76   39   40 ar
    77   40   72 1
@<TRIPOS>MOLECULE
CHEMBL31886
   72    76     0     0     0
SMALL
USER_CHARGES

@<TRIPOS>ATOM
      1 C1         -0.0167    1.3781    0.0096 C.ar      1 <0>        -0.1127
      2 C2          1.1709    2.0855    0.0021 C.ar      1 <0>        -0.1222
      3 C3          2.3773    1.4107   -0.0130 C.ar      1 <0>        -0.0985
      4 C4          2.3960    0.0285   -0.0201 C.ar      1 <0>        -0.0924
      5 C5          1.2084   -0.6789   -0.0117 C.ar      1 <0>        -0.0984
      6 C6          0.0021   -0.0041    0.0020 C.ar      1 <0>        -0.1243
      7 C7          3.7112   -0.7071   -0.0376 C.3       1 <0>         0.1028
      8 O1          4.1410   -0.9464    1.3041 O.3       1 <0>        -0.3739
      9 C8          5.3853   -1.6423    1.4004 C.3       1 <0>         0.0626
     10 C9          5.7451   -1.8423    2.8740 C.3       1 <0>         0.0637
     11 O2          4.7825   -2.7024    3.4869 O.3       1 <0>        -0.3731
     12 C10         5.0275   -2.9554    4.8718 C.3       1 <0>         0.0965
     13 C11         3.9574   -3.8684    5.4126 C.ar      1 <0>        -0.0751
     14 C12         2.7993   -3.3354    5.9470 C.ar      1 <0>        -0.0880
     15 C13         1.8178   -4.1730    6.4431 C.ar      1 <0>        -0.1003
     16 C14         1.9942   -5.5435    6.4043 C.ar      1 <0>        -0.0805
     17 C15         3.1519   -6.0765    5.8691 C.ar      1 <0>        -0.1228
     18 C16         4.1316   -5.2391    5.3691 C.ar      1 <0>        -0.0938
     19 C17         0.9246   -6.4565    6.9460 C.3       1 <0>        -0.0539
     20 H1          0.0936   -5.8606    7.3235 H         1 <0>         0.1051
     21 C18         0.4271   -7.3806    5.8308 C.3       1 <0>        -0.1391
     22 C19        -0.6007   -8.3575    6.4059 C.3       1 <0>        -0.0097
     23 N1          0.0209   -9.1591    7.4668 N.4       1 <0>        -0.4994
     24 C20         0.4359   -8.2867    8.5719 C.3       1 <0>        -0.0390
     25 C21         1.5031   -7.3057    8.0815 C.3       1 <0>         0.0786
     26 H2          2.3667   -7.8616    7.7166 H         1 <0>         0.0861
     27 O3          1.9022   -6.4549    9.1581 O.3       1 <0>        -0.3427
     28 C22         3.0008   -6.9588    9.9205 C.3       1 <0>         0.1004
     29 C23         3.3350   -5.9870   11.0227 C.ar      1 <0>        -0.0984
     30 C24         4.2576   -4.9698   10.7845 C.ar      1 <0>        -0.0999
     31 C25         4.5821   -4.0759   11.7581 C.ar      1 <0>        -0.1000
     32 C26         3.9794   -4.1769   13.0236 C.ar      1 <0>        -0.0433
     33 C27         4.2887   -3.2723   14.0537 C.ar      1 <0>        -0.1084
     34 C28         3.6849   -3.4008   15.2666 C.ar      1 <0>        -0.1071
     35 C29         2.7621   -4.4178   15.5046 C.ar      1 <0>        -0.1108
     36 C30         2.4380   -5.3119   14.5311 C.ar      1 <0>        -0.1075
     37 C31         3.0410   -5.2110   13.2657 C.ar      1 <0>        -0.0570
     38 C32         2.7275   -6.1123   12.2340 C.ar      1 <0>        -0.0771
     39 H3         -0.9591    1.9053    0.0259 H         1 <0>         0.1239
     40 H4          1.1563    3.1654    0.0076 H         1 <0>         0.1252
     41 H5          3.3051    1.9634   -0.0196 H         1 <0>         0.1231
     42 H6          1.2231   -1.7588   -0.0176 H         1 <0>         0.1208
     43 H7         -0.9258   -0.5567    0.0082 H         1 <0>         0.1231
     44 H8          3.5884   -1.6586   -0.5549 H         1 <0>         0.0582
     45 H9          4.4573   -0.1052   -0.5563 H         1 <0>         0.0591
     46 H10         5.2973   -2.6133    0.9129 H         1 <0>         0.0585
     47 H11         6.1662   -1.0598    0.9116 H         1 <0>         0.0681
     48 H12         6.7347   -2.2931    2.9485 H         1 <0>         0.0673
     49 H13         5.7461   -0.8778    3.3819 H         1 <0>         0.0612
     50 H14         6.0022   -3.4293    4.9877 H         1 <0>         0.0594
     51 H15         5.0135   -2.0140    5.4211 H         1 <0>         0.0612
     52 H16         2.6615   -2.2647    5.9773 H         1 <0>         0.1278
     53 H17         0.9133   -3.7565    6.8612 H         1 <0>         0.1248
     54 H18         3.2899   -7.1472    5.8392 H         1 <0>         0.1158
     55 H19         5.0345   -5.6556    4.9476 H         1 <0>         0.1254
     56 H20        -0.0369   -6.7851    5.0445 H         1 <0>         0.1231
     57 H21         1.2679   -7.9381    5.4180 H         1 <0>         0.0934
     58 H22        -1.4411   -7.7990    6.8182 H         1 <0>         0.1346
     59 H23        -0.9571   -9.0168    5.6145 H         1 <0>         0.1394
     60 H24        -0.6434   -9.8381    7.8069 H         1 <0>         0.4354
     61 H25        -0.4266   -7.7297    8.9381 H         1 <0>         0.1415
     62 H26         0.8448   -8.8938    9.3796 H         1 <0>         0.1344
     63 H27         2.7306   -7.9215   10.3545 H         1 <0>         0.0605
     64 H28         3.8671   -7.0835    9.2709 H         1 <0>         0.0683
     65 H29         4.7222   -4.8899    9.8128 H         1 <0>         0.1227
     66 H30         5.2993   -3.2933   11.5593 H         1 <0>         0.1312
     67 H31         5.0021   -2.4794   13.8838 H         1 <0>         0.1308
     68 H32         3.9246   -2.7044   16.0565 H         1 <0>         0.1281
     69 H33         2.2975   -4.4977   16.4763 H         1 <0>         0.1273
     70 H34         1.7214   -6.0950   14.7301 H         1 <0>         0.1275
     71 H35         2.0110   -6.9027   12.4027 H         1 <0>         0.1249
     72 H36         0.8281   -9.6377    7.0961 H         1 <0>         0.4276
@<TRIPOS>BOND
     1    1    6 ar
     2    1    2 ar
     3    1   39 1
     4    2    3 ar
     5    2   40 1
     6    3    4 ar
     7    3   41 1
     8    4    5 ar
     9    4    7 1
    10    5    6 ar
    11    5   42 1
    12    6   43 1
    13    7    8 1
    14    7   44 1
    15    7   45 1
    16    8    9 1
    17    9   10 1
    18    9   46 1
    19    9   47 1
    20   10   11 1
    21   10   48 1
    22   10   49 1
    23   11   12 1
    24   12   13 1
    25   12   50 1
    26   12   51 1
    27   13   18 ar
    28   13   14 ar
    29   14   15 ar
    30   14   52 1
    31   15   16 ar
    32   15   53 1
    33   16   17 ar
    34   16   19 1
    35   17   18 ar
    36   17   54 1
    37   18   55 1
    38   19   20 1
    39   19   25 1
    40   19   21 1
    41   21   22 1
    42   21   56 1
    43   21   57 1
    44   22   23 1
    45   22   58 1
    46   22   59 1
    47   23   24 1
    48   23   60 1
    49   23   72 1
    50   24   25 1
    51   24   61 1
    52   24   62 1
    53   25   26 1
    54   25   27 1
    55   27   28 1
    56   28   29 1
    57   28   63 1
    58   28   64 1
    59   29   38 ar
    60   29   30 ar
    61   30   31 ar
    62   30   65 1
    63   31   32 ar
    64   31   66 1
    65   32   37 ar
    66   32   33 ar
    67   33   34 ar
    68   33   67 1
    69   34   35 ar
    70   34   68 1
    71   35   36 ar
    72   35   69 1
    73   36   37 ar
    74   36   70 1
    75   37   38 ar
    76   38   71 1
@<TRIPOS>MOLECULE
CHEMBL431502
   67    72     0     0     0
SMALL
USER_CHARGES

@<TRIPOS>ATOM
      1 C1         -0.0167    1.3790    0.0096 C.ar      1 <0>        -0.0871
      2 C2          1.1687    2.0918    0.0021 C.ar      1 <0>        -0.1224
      3 C3          2.3774    1.4257   -0.0129 C.ar      1 <0>        -0.0744
      4 C4          2.4021    0.0327   -0.0206 C.ar      1 <0>        -0.0479
      5 C5          1.2051   -0.6804   -0.0130 C.ar      1 <0>        -0.0642
      6 C6          0.0021   -0.0041    0.0020 C.ar      1 <0>        -0.1250
      7 C7          3.6989   -0.6891   -0.0373 C.2       1 <0>         0.3012
      8 N1          3.8530   -2.0253   -0.0514 N.2       1 <0>        -0.5074
      9 C8          5.1197   -2.3280   -0.0646 C.2       1 <0>         0.2862
     10 O1          5.8280   -1.1914   -0.0594 O.3       1 <0>        -0.0903
     11 N2          4.8841   -0.1309   -0.0465 N.2       1 <0>        -0.3181
     12 C9          5.6918   -3.7221   -0.0818 C.3       1 <0>         0.1500
     13 O2          5.8615   -4.1507   -1.4345 O.3       1 <0>        -0.3039
     14 C10         6.3715   -5.3954   -1.6279 C.ar      1 <0>         0.1428
     15 C11         6.6965   -6.1902   -0.5383 C.ar      1 <0>        -0.2010
     16 C12         7.2143   -7.4553   -0.7376 C.ar      1 <0>        -0.0540
     17 C13         7.4092   -7.9294   -2.0218 C.ar      1 <0>        -0.1215
     18 C14         7.0865   -7.1390   -3.1094 C.ar      1 <0>        -0.0774
     19 C15         6.5627   -5.8756   -2.9154 C.ar      1 <0>        -0.1402
     20 C16         7.9747   -9.3097   -2.2363 C.3       1 <0>        -0.0487
     21 H1          8.1664   -9.7791   -1.2714 H         1 <0>         0.1049
     22 C17         6.9733  -10.1561   -3.0275 C.3       1 <0>        -0.1397
     23 C18         7.5859  -11.5295   -3.3104 C.3       1 <0>        -0.0100
     24 N3          8.8178  -11.3682   -4.0921 N.4       1 <0>        -0.4997
     25 C19         9.8089  -10.6187   -3.3108 C.3       1 <0>        -0.0391
     26 C20         9.2828   -9.2101   -3.0263 C.3       1 <0>         0.0774
     27 H2          9.1005   -8.6936   -3.9686 H         1 <0>         0.0859
     28 O3         10.2476   -8.4840   -2.2620 O.3       1 <0>        -0.3427
     29 C21        11.1886   -7.7567   -3.0542 C.3       1 <0>         0.1002
     30 C22        12.1529   -7.0327   -2.1503 C.ar      1 <0>        -0.0985
     31 C23        11.8540   -5.7406   -1.7219 C.ar      1 <0>        -0.1004
     32 C24        12.7033   -5.0589   -0.9056 C.ar      1 <0>        -0.0998
     33 C25        13.9003   -5.6642   -0.4862 C.ar      1 <0>        -0.0433
     34 C26        14.8018   -4.9921    0.3569 C.ar      1 <0>        -0.1084
     35 C27        15.9512   -5.6101    0.7430 C.ar      1 <0>        -0.1071
     36 C28        16.2499   -6.9024    0.3148 C.ar      1 <0>        -0.1106
     37 C29        15.4008   -7.5838   -0.5018 C.ar      1 <0>        -0.1077
     38 C30        14.2040   -6.9783   -0.9215 C.ar      1 <0>        -0.0570
     39 C31        13.2999   -7.6526   -1.7600 C.ar      1 <0>        -0.0771
     40 H3         -0.9602    1.9042    0.0260 H         1 <0>         0.1329
     41 H4          1.1483    3.1716    0.0077 H         1 <0>         0.1353
     42 H5          3.3023    1.9832   -0.0191 H         1 <0>         0.1327
     43 H6          1.2187   -1.7603   -0.0193 H         1 <0>         0.1380
     44 H7         -0.9264   -0.5558    0.0079 H         1 <0>         0.1349
     45 H8          6.6573   -3.7249    0.4240 H         1 <0>         0.1088
     46 H9          5.0107   -4.4008    0.4316 H         1 <0>         0.1184
     47 H10         6.5451   -5.8201    0.4649 H         1 <0>         0.1350
     48 H11         7.4674   -8.0745    0.1103 H         1 <0>         0.1293
     49 H12         7.2400   -7.5115   -4.1115 H         1 <0>         0.1241
     50 H13         6.3067   -5.2603   -3.7653 H         1 <0>         0.1360
     51 H14         6.0598  -10.2779   -2.4455 H         1 <0>         0.1230
     52 H15         6.7418   -9.6597   -3.9699 H         1 <0>         0.0933
     53 H16         7.8168  -12.0250   -2.3674 H         1 <0>         0.1345
     54 H17         6.8755  -12.1347   -3.8735 H         1 <0>         0.1391
     55 H18         9.1902  -12.2772   -4.3225 H         1 <0>         0.4355
     56 H19         9.9924  -11.1336   -2.3678 H         1 <0>         0.1413
     57 H20        10.7396  -10.5515   -3.8742 H         1 <0>         0.1342
     58 H21        11.7384   -8.4488   -3.6921 H         1 <0>         0.0607
     59 H22        10.6592   -7.0334   -3.6744 H         1 <0>         0.0687
     60 H23        10.9349   -5.2731   -2.0427 H         1 <0>         0.1227
     61 H24        12.4589   -4.0579   -0.5822 H         1 <0>         0.1313
     62 H25        14.5837   -3.9903    0.6963 H         1 <0>         0.1308
     63 H26        16.6424   -5.0912    1.3906 H         1 <0>         0.1281
     64 H27        17.1691   -7.3699    0.6356 H         1 <0>         0.1273
     65 H28        15.6456   -8.5845   -0.8259 H         1 <0>         0.1275
     66 H29        13.5161   -8.6559   -2.0960 H         1 <0>         0.1249
     67 H30         8.6118  -10.8659   -4.9426 H         1 <0>         0.4278
@<TRIPOS>BOND
     1    1    6 ar
     2    1    2 ar
     3    1   40 1
     4    2    3 ar
     5    2   41 1
     6    3    4 ar
     7    3   42 1
     8    4    5 ar
     9    4    7 1
    10    5    6 ar
    11    5   43 1
    12    6   44 1
    13    7   11 2
    14    7    8 1
    15    8    9 2
    16    9   10 1
    17    9   12 1
    18   10   11 1
    19   12   13 1
    20   12   45 1
    21   12   46 1
    22   13   14 1
    23   14   19 ar
    24   14   15 ar
    25   15   16 ar
    26   15   47 1
    27   16   17 ar
    28   16   48 1
    29   17   18 ar
    30   17   20 1
    31   18   19 ar
    32   18   49 1
    33   19   50 1
    34   20   21 1
    35   20   26 1
    36   20   22 1
    37   22   23 1
    38   22   51 1
    39   22   52 1
    40   23   24 1
    41   23   53 1
    42   23   54 1
    43   24   25 1
    44   24   55 1
    45   24   67 1
    46   25   26 1
    47   25   56 1
    48   25   57 1
    49   26   27 1
    50   26   28 1
    51   28   29 1
    52   29   30 1
    53   29   58 1
    54   29   59 1
    55   30   39 ar
    56   30   31 ar
    57   31   32 ar
    58   31   60 1
    59   32   33 ar
    60   32   61 1
    61   33   38 ar
    62   33   34 ar
    63   34   35 ar
    64   34   62 1
    65   35   36 ar
    66   35   63 1
    67   36   37 ar
    68   36   64 1
    69   37   38 ar
    70   37   65 1
    71   38   39 ar
    72   39   66 1
@<TRIPOS>MOLECULE
CHEMBL49174
   96    98     0     0     0
SMALL
USER_CHARGES

@<TRIPOS>ATOM
      1 C1         -0.1269    1.8677   -0.7265 C.3       1 <0>        -0.1735
      2 C2         -0.0073    0.3895   -0.3502 C.3       1 <0>         0.0602
      3 H1          0.4812   -0.1531   -1.1596 H         1 <0>         0.0938
      4 C3          0.8099    0.2562    0.9089 C.2       1 <0>         0.5224
      5 O1          0.2974   -0.1698    1.9222 O.2       1 <0>        -0.4897
      6 N1          2.1103    0.6103    0.9089 N.am      1 <0>        -0.7224
      7 C4          2.9048    0.4807    2.1330 C.3       1 <0>         0.1196
      8 H2          2.2781    0.6989    2.9977 H         1 <0>         0.1090
      9 C5          3.4449   -0.9467    2.2417 C.3       1 <0>        -0.1221
     10 C6          2.2782   -1.9219    2.4112 C.3       1 <0>        -0.0934
     11 C7          1.5772   -1.6518    3.7441 C.3       1 <0>        -0.1055
     12 C8          0.4106   -2.6270    3.9136 C.3       1 <0>        -0.1126
     13 C9          0.9394   -4.0626    3.8973 C.3       1 <0>        -0.1201
     14 C10         1.6404   -4.3327    2.5644 C.3       1 <0>        -0.1168
     15 C11         2.8070   -3.3575    2.3949 C.3       1 <0>        -0.1162
     16 C12         4.0741    1.4664    2.0888 C.3       1 <0>         0.0680
     17 H3          4.6652    1.3700    2.9995 H         1 <0>         0.1128
     18 C13         3.5340    2.8938    1.9801 C.3       1 <0>         0.0764
     19 H4          2.9429    2.9902    1.0694 H         1 <0>         0.1006
     20 C14         4.7033    3.8795    1.9359 C.3       1 <0>        -0.1445
     21 C15         4.1692    5.2941    1.7022 C.3       1 <0>        -0.0946
     22 C16         5.3238    6.2948    1.7821 C.3       1 <0>        -0.1487
     23 C17         3.5213    5.3724    0.3183 C.3       1 <0>        -0.1494
     24 O2          2.7124    3.1798    3.1137 O.3       1 <0>        -0.5474
     25 O3          4.8957    1.1804    0.9552 O.3       1 <0>        -0.5431
     26 O4         -1.3110   -0.1534   -0.1317 O.3       1 <0>        -0.3161
     27 C18        -1.9165   -0.7014   -1.3043 C.3       1 <0>         0.0810
     28 H5         -1.5579   -0.1651   -2.1829 H         1 <0>         0.0859
     29 C19        -1.5477   -2.1814   -1.4246 C.3       1 <0>        -0.1061
     30 C20        -0.0720   -2.3105   -1.7018 C.ar      1 <0>        -0.0910
     31 C21         0.3878   -2.3226   -3.0054 C.ar      1 <0>        -0.1195
     32 C22         1.7414   -2.4410   -3.2598 C.ar      1 <0>        -0.1160
     33 C23         2.6352   -2.5468   -2.2105 C.ar      1 <0>        -0.1186
     34 C24         2.1754   -2.5338   -0.9069 C.ar      1 <0>        -0.1176
     35 C25         0.8222   -2.4111   -0.6525 C.ar      1 <0>        -0.1120
     36 C26        -3.4140   -0.5631   -1.2079 C.2       1 <0>         0.5203
     37 O5         -3.9315   -0.3020   -0.1425 O.2       1 <0>        -0.5043
     38 N2         -4.1782   -0.7296   -2.3055 N.am      1 <0>        -0.6134
     39 C27        -3.5769   -1.1433   -3.5806 C.3       1 <0>         0.1014
     40 C28        -4.3164   -2.3821   -4.0955 C.3       1 <0>        -0.1322
     41 C29        -5.8146   -2.0803   -4.1758 C.3       1 <0>         0.0912
     42 C30        -6.3450   -1.7467   -2.7795 C.3       1 <0>        -0.1571
     43 C31        -5.6293   -0.5066   -2.2482 C.3       1 <0>         0.1156
     44 O6         -6.5038   -3.2232   -4.6864 O.3       1 <0>        -0.3921
     45 C32        -7.6875   -2.9075   -5.4221 C.3       1 <0>         0.2113
     46 O7         -7.3275   -2.3947   -6.7064 O.3       1 <0>        -0.4038
     47 C33        -6.8727   -3.3917   -7.6236 C.3       1 <0>         0.0310
     48 H6          0.8675    2.2818   -0.8932 H         1 <0>         0.0694
     49 H7         -0.7180    1.9641   -1.6372 H         1 <0>         0.0676
     50 H8         -0.6154    2.4102    0.0829 H         1 <0>         0.0746
     51 H9          2.5202    0.9509    0.0985 H         1 <0>         0.3891
     52 H10         3.9980   -1.1958    1.3361 H         1 <0>         0.0683
     53 H11         4.1077   -1.0197    3.1039 H         1 <0>         0.0688
     54 H12         1.5697   -1.7864    1.5941 H         1 <0>         0.0893
     55 H13         2.2858   -1.7873    4.5612 H         1 <0>         0.0441
     56 H14         1.2005   -0.6290    3.7557 H         1 <0>         0.0792
     57 H15        -0.0888   -2.4345    4.8632 H         1 <0>         0.0534
     58 H16        -0.2979   -2.4914    3.0965 H         1 <0>         0.0654
     59 H17         1.6479   -4.1981    4.7144 H         1 <0>         0.0568
     60 H18         0.1082   -4.7574    4.0180 H         1 <0>         0.0557
     61 H19         2.0171   -5.3555    2.5527 H         1 <0>         0.0562
     62 H20         0.9319   -4.1972    1.7472 H         1 <0>         0.0581
     63 H21         3.3064   -3.5500    1.4453 H         1 <0>         0.0555
     64 H22         3.5156   -3.4931    3.2120 H         1 <0>         0.0580
     65 H23         5.2423    3.8465    2.8828 H         1 <0>         0.0657
     66 H24         5.3778    3.6071    1.1242 H         1 <0>         0.0796
     67 H25         3.4278    5.5332    2.4646 H         1 <0>         0.0759
     68 H26         6.0653    6.0558    1.0197 H         1 <0>         0.0536
     69 H27         4.9434    7.3026    1.6156 H         1 <0>         0.0547
     70 H28         5.7854    6.2390    2.7680 H         1 <0>         0.0533
     71 H29         4.2628    5.1334   -0.4440 H         1 <0>         0.0534
     72 H30         2.6988    4.6595    0.2614 H         1 <0>         0.0535
     73 H31         3.1409    6.3802    0.1518 H         1 <0>         0.0548
     74 H32         3.1739    3.1132    3.9609 H         1 <0>         0.3749
     75 H33         4.4341    1.2471    0.1080 H         1 <0>         0.3690
     76 H34        -1.7883   -2.6927   -0.4925 H         1 <0>         0.0929
     77 H35        -2.1116   -2.6312   -2.2418 H         1 <0>         0.0916
     78 H36        -0.3105   -2.2399   -3.8251 H         1 <0>         0.1212
     79 H37         2.1006   -2.4512   -4.2782 H         1 <0>         0.1230
     80 H38         3.6926   -2.6401   -2.4093 H         1 <0>         0.1217
     81 H39         2.8736   -2.6169   -0.0872 H         1 <0>         0.1273
     82 H40         0.4633   -2.3972    0.3660 H         1 <0>         0.1300
     83 H41        -3.6678   -0.3354   -4.3066 H         1 <0>         0.0771
     84 H42        -2.5247   -1.3832   -3.4276 H         1 <0>         0.0924
     85 H43        -3.9442   -2.6424   -5.0864 H         1 <0>         0.0851
     86 H44        -4.1492   -3.2155   -3.4131 H         1 <0>         0.0779
     87 H45        -5.9789   -1.2311   -4.8391 H         1 <0>         0.0722
     88 H46        -7.4166   -1.5547   -2.8337 H         1 <0>         0.0791
     89 H47        -6.1587   -2.5861   -2.1095 H         1 <0>         0.0777
     90 H48        -5.9309   -0.3265   -1.2163 H         1 <0>         0.0995
     91 H49        -5.8913    0.3544   -2.8631 H         1 <0>         0.0716
     92 H50        -8.2893   -3.8078   -5.5459 H         1 <0>         0.0924
     93 H51        -8.2631   -2.1574   -4.8797 H         1 <0>         0.0915
     94 H52        -5.9907   -3.8855   -7.2157 H         1 <0>         0.0484
     95 H53        -7.6612   -4.1278   -7.7806 H         1 <0>         0.0434
     96 H54        -6.6193   -2.9224   -8.5742 H         1 <0>         0.0853
@<TRIPOS>BOND
     1    1    2 1
     2    1   48 1
     3    1   49 1
     4    1   50 1
     5    2    3 1
     6    2    4 1
     7    2   26 1
     8    4    5 2
     9    4    6 am
    10    6    7 1
    11    6   51 1
    12    7    8 1
    13    7    9 1
    14    7   16 1
    15    9   10 1
    16    9   52 1
    17    9   53 1
    18   10   15 1
    19   10   11 1
    20   10   54 1
    21   11   12 1
    22   11   55 1
    23   11   56 1
    24   12   13 1
    25   12   57 1
    26   12   58 1
    27   13   14 1
    28   13   59 1
    29   13   60 1
    30   14   15 1
    31   14   61 1
    32   14   62 1
    33   15   63 1
    34   15   64 1
    35   16   17 1
    36   16   18 1
    37   16   25 1
    38   18   19 1
    39   18   20 1
    40   18   24 1
    41   20   21 1
    42   20   65 1
    43   20   66 1
    44   21   22 1
    45   21   23 1
    46   21   67 1
    47   22   68 1
    48   22   69 1
    49   22   70 1
    50   23   71 1
    51   23   72 1
    52   23   73 1
    53   24   74 1
    54   25   75 1
    55   26   27 1
    56   27   28 1
    57   27   29 1
    58   27   36 1
    59   29   30 1
    60   29   76 1
    61   29   77 1
    62   30   35 ar
    63   30   31 ar
    64   31   32 ar
    65   31   78 1
    66   32   33 ar
    67   32   79 1
    68   33   34 ar
    69   33   80 1
    70   34   35 ar
    71   34   81 1
    72   35   82 1
    73   36   37 2
    74   36   38 am
    75   38   43 1
    76   38   39 1
    77   39   40 1
    78   39   83 1
    79   39   84 1
    80   40   41 1
    81   40   85 1
    82   40   86 1
    83   41   42 1
    84   41   44 1
    85   41   87 1
    86   42   43 1
    87   42   88 1
    88   42   89 1
    89   43   90 1
    90   43   91 1
    91   44   45 1
    92   45   46 1
    93   45   92 1
    94   45   93 1
    95   46   47 1
    96   47   94 1
    97   47   95 1
    98   47   96 1
