@<TRIPOS>MOLECULE
3G6Z-A7T
 84 89 0 0 0
SMALL
SF_CHARGES


@<TRIPOS>ATOM
1    O        -4.6560  -16.7670   -9.8910  O.2        1 SUBUNIT     -0.5226
2    C        -5.5920  -16.5480  -10.6630  C.2        1 SUBUNIT      0.6714
3    N        -6.2480  -15.3740  -10.5730  N.am       1 SUBUNIT     -0.4699
4    C        -5.9410  -14.4040   -9.5210  C.3        1 SUBUNIT      0.1869
5    C        -4.7480  -13.4890   -9.6020  C.2        1 SUBUNIT     -0.0412
6    C        -3.8650  -13.4990  -10.6790  C.2        1 SUBUNIT     -0.0974
7    C        -2.7960  -12.5950  -10.6750  C.2        1 SUBUNIT     -0.0959
8    C        -2.6240  -11.7060   -9.6130  C.2        1 SUBUNIT     -0.1000
9    C        -3.5250  -11.6840   -8.5470  C.2        1 SUBUNIT     -0.0325
10   C        -3.3500  -10.7130   -7.3940  C.3        1 SUBUNIT     -0.0628
11   C        -4.5810  -12.5780   -8.5480  C.2        1 SUBUNIT     -0.0356
12   C        -5.5460  -12.5660   -7.3910  C.3        1 SUBUNIT     -0.0639
13   C        -7.4260  -14.9300  -11.3520  C.3        1 SUBUNIT      0.1885
14   C        -7.1820  -15.0560  -12.8490  C.3        1 SUBUNIT     -0.0745
15   C        -6.9970  -13.7070  -12.1650  C.3        1 SUBUNIT     -0.0745
16   C        -5.9460  -17.5960  -11.6450  C.2        1 SUBUNIT     -0.0726
17   C        -4.9410  -18.0100  -12.6900  C.3        1 SUBUNIT      0.2271
18   N        -5.6170  -18.6720  -13.8000  N.4        1 SUBUNIT     -0.3769
19   C        -3.9340  -18.9970  -12.1030  C.3        1 SUBUNIT      0.1632
20   N        -4.5860  -20.2900  -11.8880  N.4        1 SUBUNIT     -0.3720
21   C        -5.5460  -20.8770  -12.8170  C.3        1 SUBUNIT      0.1645
22   C        -6.4260  -19.8200  -13.4710  C.3        1 SUBUNIT      0.2036
23   C        -7.5300  -19.3980  -12.5040  C.3        1 SUBUNIT     -0.0590
24   C        -7.1420  -18.2440  -11.5760  C.2        1 SUBUNIT     -0.0290
25   C        -8.1940  -17.8670  -10.5630  C.2        1 SUBUNIT     -0.0167
26   C        -9.4900  -17.6670  -11.0130  C.2        1 SUBUNIT     -0.1066
27   C       -10.4970  -17.3120  -10.1300  C.2        1 SUBUNIT     -0.1155
28   C        -7.8940  -17.6970   -9.1990  C.2        1 SUBUNIT     -0.1066
29   C        -8.9080  -17.3370   -8.3070  C.2        1 SUBUNIT     -0.1155
30   C       -10.2060  -17.1460   -8.7780  C.2        1 SUBUNIT      0.1549
31   O       -11.1970  -16.7980   -7.9080  O.3        1 SUBUNIT     -0.3865
32   C       -12.4270  -16.2250   -8.3530  C.3        1 SUBUNIT      0.1856
33   C       -12.6610  -14.9330   -7.5880  C.3        1 SUBUNIT      0.1865
34   O       -12.4710  -13.8180   -8.4510  O.3        1 SUBUNIT     -0.3843
35   C       -12.0100  -12.6340   -7.9500  C.2        1 SUBUNIT      0.1453
36   C       -10.5680  -12.2990   -7.9700  C.2        1 SUBUNIT      0.0062
37   Cl       -9.3570  -13.4410   -8.6520  Cl         1 SUBUNIT     -0.0923
38   C       -10.1670  -11.0750   -7.4380  C.2        1 SUBUNIT     -0.1051
39   C       -11.0840  -10.1680   -6.9030  C.2        1 SUBUNIT     -0.0274
40   C       -10.6180   -8.8480   -6.3400  C.3        1 SUBUNIT     -0.0609
41   C       -12.4380  -10.4440   -6.8730  C.2        1 SUBUNIT     -0.1051
42   C       -12.9410  -11.6330   -7.3690  C.2        1 SUBUNIT      0.0062
43   Cl      -14.7140  -11.9170   -7.3080  Cl         1 SUBUNIT     -0.0923
44   H        -6.8247  -13.7625   -9.4404  H          1 SUBUNIT      0.0396
45   H        -5.8280  -14.9878   -8.6015  H          1 SUBUNIT      0.0396
46   H        -4.0036  -14.1871  -11.4945  H          1 SUBUNIT      0.1165
47   H        -2.1008  -12.5843  -11.4962  H          1 SUBUNIT      0.1157
48   H        -1.7871  -11.0297   -9.6160  H          1 SUBUNIT      0.1149
49   H        -2.3916  -10.8722   -6.8889  H          1 SUBUNIT      0.0534
50   H        -4.1459  -10.8370   -6.6523  H          1 SUBUNIT      0.0534
51   H        -3.3767   -9.6766   -7.7463  H          1 SUBUNIT      0.0534
52   H        -6.5654  -12.3576   -7.7324  H          1 SUBUNIT      0.0527
53   H        -5.2724  -11.7982   -6.6598  H          1 SUBUNIT      0.0527
54   H        -5.5543  -13.5328   -6.8769  H          1 SUBUNIT      0.0527
55   H        -8.2453  -15.2139  -10.6833  H          1 SUBUNIT      0.0366
56   H        -6.3097  -15.6069  -13.2160  H          1 SUBUNIT      0.0554
57   H        -8.0259  -15.2129  -13.5289  H          1 SUBUNIT      0.0554
58   H        -7.7086  -12.8960  -12.3520  H          1 SUBUNIT      0.0554
59   H        -5.9924  -13.2900  -12.0391  H          1 SUBUNIT      0.0554
60   H        -4.4400  -17.1081  -13.0569  H          1 SUBUNIT      0.0371
61   H        -6.2178  -17.9948  -14.2432  H          1 SUBUNIT      0.3619
62   H        -4.9121  -18.9752  -14.4536  H          1 SUBUNIT      0.3619
63   H        -3.0960  -19.1321  -12.7947  H          1 SUBUNIT      0.0421
64   H        -3.5599  -18.6237  -11.1440  H          1 SUBUNIT      0.0421
65   H        -3.8408  -20.9634  -11.8029  H          1 SUBUNIT      0.3609
66   H        -5.0704  -20.2111  -11.0076  H          1 SUBUNIT      0.3609
67   H        -4.9896  -21.4161  -13.5908  H          1 SUBUNIT      0.0414
68   H        -6.1750  -21.5807  -12.2619  H          1 SUBUNIT      0.0414
69   H        -6.8620  -20.2082  -14.3974  H          1 SUBUNIT      0.0394
70   H        -8.4010  -19.0893  -13.0915  H          1 SUBUNIT      0.0534
71   H        -7.7937  -20.2627  -11.8862  H          1 SUBUNIT      0.0534
72   H        -9.7163  -17.7885  -12.0579  H          1 SUBUNIT      0.1150
73   H       -11.5002  -17.1656  -10.4904  H          1 SUBUNIT      0.1152
74   H        -6.8898  -17.8426   -8.8409  H          1 SUBUNIT      0.1150
75   H        -8.6891  -17.2076   -7.2615  H          1 SUBUNIT      0.1152
76   H       -12.3589  -16.0261   -9.4276  H          1 SUBUNIT      0.0379
77   H       -13.2394  -16.9342   -8.1633  H          1 SUBUNIT      0.0379
78   H       -13.6850  -14.9037   -7.2013  H          1 SUBUNIT      0.0380
79   H       -11.9537  -14.8539   -6.7558  H          1 SUBUNIT      0.0380
80   H        -9.1210  -10.8227   -7.4400  H          1 SUBUNIT      0.1150
81   H        -9.9184   -8.9998   -5.5115  H          1 SUBUNIT      0.0548
82   H       -11.4628   -8.2616   -5.9639  H          1 SUBUNIT      0.0548
83   H       -10.1092   -8.2526   -7.1053  H          1 SUBUNIT      0.0548
84   H       -13.1143   -9.7188   -6.4552  H          1 SUBUNIT      0.1150
@<TRIPOS>BOND
     1    1    2 2
     2    2    3 1
     3    2   16 1
     4    3    4 1
     5    3   13 1
     6    4    5 1
     7    5    6 1
     8    5   11 2
     9    6    7 2
    10    7    8 1
    11    8    9 2
    12    9   10 1
    13    9   11 1
    14   11   12 1
    15   13   14 1
    16   13   15 1
    17   14   15 1
    18   16   17 1
    19   16   24 2
    20   17   18 1
    21   17   19 1
    22   18   22 1
    23   19   20 1
    24   20   21 1
    25   21   22 1
    26   22   23 1
    27   23   24 1
    28   24   25 1
    29   25   26 2
    30   25   28 1
    31   26   27 1
    32   27   30 2
    33   28   29 2
    34   29   30 1
    35   30   31 1
    36   31   32 1
    37   32   33 1
    38   33   34 1
    39   34   35 1
    40   35   36 1
    41   35   42 2
    42   36   37 1
    43   36   38 2
    44   38   39 1
    45   39   40 1
    46   39   41 2
    47   41   42 1
    48   42   43 1
    49    4   44 1
    50    4   45 1
    51    6   46 1
    52    7   47 1
    53    8   48 1
    54   10   49 1
    55   10   50 1
    56   10   51 1
    57   12   52 1
    58   12   53 1
    59   12   54 1
    60   13   55 1
    61   14   56 1
    62   14   57 1
    63   15   58 1
    64   15   59 1
    65   17   60 1
    66   18   61 1
    67   18   62 1
    68   19   63 1
    69   19   64 1
    70   20   65 1
    71   20   66 1
    72   21   67 1
    73   21   68 1
    74   22   69 1
    75   23   70 1
    76   23   71 1
    77   26   72 1
    78   27   73 1
    79   28   74 1
    80   29   75 1
    81   32   76 1
    82   32   77 1
    83   33   78 1
    84   33   79 1
    85   38   80 1
    86   40   81 1
    87   40   82 1
    88   40   83 1
    89   41   84 1
