@<TRIPOS>MOLECULE
CHEMBL166027
   50    52     0     0     0
SMALL
USER_CHARGES

@<TRIPOS>ATOM
      1 C1         -0.0184    1.5028    0.0103 C.3       1 <0>        -0.1225
      2 C2          0.0021   -0.0041    0.0020 C.ar      1 <0>        -0.0642
      3 C3          0.0057   -0.6850   -1.2045 C.ar      1 <0>        -0.0734
      4 C4          0.0247   -2.0628   -1.2410 C.ar      1 <0>        -0.1017
      5 C5          0.0406   -2.7906   -0.0493 C.ar      1 <0>         0.1920
      6 C6          0.0370   -2.1008    1.1848 C.ar      1 <0>        -0.1817
      7 C7          0.0229   -0.6991    1.2027 C.ar      1 <0>        -0.0618
      8 S1          0.0256    0.1713    2.7347 S.3       1 <0>         0.0204
      9 C8         -1.6832    0.3586    3.1215 C.ar      1 <0>        -0.0780
     10 C9         -2.6508   -0.1550    2.2615 C.ar      1 <0>        -0.1374
     11 C10        -3.9812   -0.0104    2.5596 C.ar      1 <0>        -0.0470
     12 C11        -4.3662    0.6531    3.7286 C.ar      1 <0>        -0.1109
     13 C12        -3.3925    1.1672    4.5904 C.ar      1 <0>        -0.0658
     14 C13        -2.0635    1.0150    4.2896 C.ar      1 <0>        -0.1042
     15 C14        -5.7967    0.8107    4.0519 C.2       1 <0>         0.5499
     16 O1         -6.6425    0.3634    3.3015 O.2       1 <0>        -0.5560
     17 N1         -6.1663    1.4504    5.1792 N.am      1 <0>        -0.6741
     18 C15        -7.5871    1.6070    5.5003 C.3       1 <0>         0.0727
     19 H1         -8.1542    1.7475    4.5801 H         1 <0>         0.0784
     20 C16        -7.7740    2.8260    6.4058 C.3       1 <0>        -0.0811
     21 C17        -7.3900    4.0937    5.6400 C.3       1 <0>        -0.1777
     22 C18        -7.5741    5.2945    6.5319 C.2       1 <0>         0.4912
     23 O2         -7.9752    5.1497    7.6741 O.co2     1 <0>        -0.6975
     24 O3         -7.3219    6.4107    6.1112 O.co2     1 <0>        -0.7198
     25 C19        -8.0804    0.3730    6.2109 C.2       1 <0>         0.4972
     26 O4         -7.2860   -0.4700    6.5913 O.co2     1 <0>        -0.6978
     27 O5         -9.2739    0.2178    6.4056 O.co2     1 <0>        -0.7011
     28 C20         0.0535   -2.8896    2.4196 C.2       1 <0>         0.5526
     29 N2          0.0713   -4.2374    2.3022 N.am      1 <0>        -0.6679
     30 C21         0.0740   -4.8266    1.0713 C.2       1 <0>         0.6384
     31 N3          0.0591   -4.1451   -0.0466 N.2       1 <0>        -0.5906
     32 N4          0.0928   -6.1968    1.0020 N.pl3     1 <0>        -0.8276
     33 O6          0.0516   -2.3515    3.5119 O.2       1 <0>        -0.4607
     34 H2          1.0042    1.8801    0.0026 H         1 <0>         0.0777
     35 H3         -0.5455    1.8639   -0.8728 H         1 <0>         0.0705
     36 H4         -0.5286    1.8543    0.9071 H         1 <0>         0.0835
     37 H5         -0.0069   -0.1283   -2.1298 H         1 <0>         0.1377
     38 H6          0.0269   -2.5787   -2.1898 H         1 <0>         0.1402
     39 H7         -2.3528   -0.6673    1.3586 H         1 <0>         0.1171
     40 H8         -4.7311   -0.4083    1.8919 H         1 <0>         0.1351
     41 H9         -3.6868    1.6801    5.4941 H         1 <0>         0.1355
     42 H10        -1.3109    1.4083    4.9568 H         1 <0>         0.1306
     43 H11        -5.4916    1.8072    5.7778 H         1 <0>         0.3902
     44 H12        -8.8166    2.8912    6.7168 H         1 <0>         0.0771
     45 H13        -7.1380    2.7262    7.2854 H         1 <0>         0.0567
     46 H14        -6.3473    4.0286    5.3290 H         1 <0>         0.0509
     47 H15        -8.0259    4.1936    4.7604 H         1 <0>         0.0526
     48 H16         0.1037   -6.7235    1.8164 H         1 <0>         0.4122
     49 H17         0.0951   -6.6387    0.1385 H         1 <0>         0.4261
     50 H18         0.0825   -4.7895    3.0997 H         1 <0>         0.4140
@<TRIPOS>BOND
     1    1    2 1
     2    1   34 1
     3    1   35 1
     4    1   36 1
     5    2    7 ar
     6    2    3 ar
     7    3    4 ar
     8    3   37 1
     9    4    5 ar
    10    4   38 1
    11    5   31 1
    12    5    6 ar
    13    6    7 ar
    14    6   28 1
    15    7    8 1
    16    8    9 1
    17    9   14 ar
    18    9   10 ar
    19   10   11 ar
    20   10   39 1
    21   11   12 ar
    22   11   40 1
    23   12   13 ar
    24   12   15 1
    25   13   14 ar
    26   13   41 1
    27   14   42 1
    28   15   16 2
    29   15   17 am
    30   17   18 1
    31   17   43 1
    32   18   19 1
    33   18   20 1
    34   18   25 1
    35   20   21 1
    36   20   44 1
    37   20   45 1
    38   21   22 1
    39   21   46 1
    40   21   47 1
    41   22   23 2
    42   22   24 1
    43   25   26 2
    44   25   27 1
    45   28   29 am
    46   28   33 2
    47   29   30 1
    48   29   50 1
    49   30   31 2
    50   30   32 1
    51   32   48 1
    52   32   49 1
@<TRIPOS>MOLECULE
CHEMBL132934
   50    53     0     0     0
SMALL
USER_CHARGES

@<TRIPOS>ATOM
      1 C1         -1.6883   -1.3343    2.3154 C.3       1 <0>        -0.1248
      2 C2         -0.7951   -1.3584    1.1018 C.2       1 <0>        -0.1058
      3 C3         -1.2175   -0.7644   -0.0455 C.2       1 <0>        -0.0272
      4 C4         -0.3584   -0.7723   -1.2577 C.2       1 <0>         0.4299
      5 O1         -0.7341   -0.2422   -2.2834 O.2       1 <0>        -0.4124
      6 C5          0.9618   -1.4355   -1.1948 C.ar      1 <0>        -0.1165
      7 C6          1.8009   -1.4685   -2.3021 C.ar      1 <0>        -0.0680
      8 C7          3.0324   -2.0974   -2.2120 C.ar      1 <0>        -0.1029
      9 C8          3.4294   -2.6913   -1.0289 C.ar      1 <0>        -0.1022
     10 C9          2.6027   -2.6664    0.0832 C.ar      1 <0>        -0.0663
     11 C10         1.3652   -2.0392    0.0099 C.ar      1 <0>        -0.1188
     12 C11         0.4672   -1.9940    1.1846 C.2       1 <0>         0.4259
     13 O2          0.8148   -2.5113    2.2299 O.2       1 <0>        -0.4168
     14 C12        -2.5342   -0.1099   -0.0874 C.2       1 <0>        -0.2559
     15 C13        -3.6991   -0.8437    0.0523 C.2       1 <0>         0.2213
     16 N1         -4.8972   -0.2033    0.0086 N.am      1 <0>        -0.5272
     17 C14        -4.9766    1.1250   -0.1675 C.2       1 <0>         0.7028
     18 O3         -6.0730    1.6491   -0.1992 O.2       1 <0>        -0.5386
     19 N2         -3.8842    1.8947   -0.3095 N.am      1 <0>        -0.6545
     20 H1         -3.9824    2.8516   -0.4349 H         1 <0>         0.4304
     21 C15        -2.6512    1.3469   -0.2732 C.2       1 <0>         0.5689
     22 O4         -1.6588    2.0399   -0.3961 O.2       1 <0>        -0.5058
     23 C16        -6.1302   -0.9806    0.1565 C.3       1 <0>         0.2957
     24 C17        -6.9132   -0.4902    1.3933 C.3       1 <0>        -0.1828
     25 C18        -7.4528   -1.8187    1.9899 C.3       1 <0>         0.0756
     26 C19        -6.2912   -2.7865    1.6510 C.3       1 <0>         0.0833
     27 O5         -5.8118   -2.3615    0.3653 O.3       1 <0>        -0.3391
     28 C20        -6.8038   -4.2262    1.5772 C.3       1 <0>         0.1403
     29 O6         -5.7021   -5.1146    1.3797 O.3       1 <0>        -0.7558
     30 P1         -5.8739   -6.7106    1.2555 P.3       1 <0>         2.1282
     31 O7         -6.6387   -7.2527    2.5107 O.2       1 <0>        -1.1894
     32 O8         -6.6889   -7.0489   -0.0390 O.3       1 <0>        -1.1860
     33 O9         -4.4613   -7.3831    1.1740 O.3       1 <0>        -1.1665
     34 O10        -8.6625   -2.2198    1.3434 O.3       1 <0>        -0.5361
     35 H2         -1.1590   -1.7662    3.1647 H         1 <0>         0.0876
     36 H3         -1.9630   -0.3046    2.5439 H         1 <0>         0.0774
     37 H4         -2.5889   -1.9148    2.1152 H         1 <0>         0.0881
     38 H5          1.4944   -1.0064   -3.2289 H         1 <0>         0.1419
     39 H6          3.6857   -2.1240   -3.0716 H         1 <0>         0.1351
     40 H7          4.3913   -3.1788   -0.9706 H         1 <0>         0.1354
     41 H8          2.9195   -3.1333    1.0041 H         1 <0>         0.1441
     42 H9         -3.6567   -1.9135    0.1941 H         1 <0>         0.1987
     43 H10        -6.7441   -0.8738   -0.7378 H         1 <0>         0.1252
     44 H11        -6.2502    0.0107    2.0987 H         1 <0>         0.0894
     45 H12        -7.7336    0.1642    1.0986 H         1 <0>         0.1053
     46 H13        -7.5941   -1.7367    3.0676 H         1 <0>         0.0896
     47 H14        -5.5000   -2.7035    2.3961 H         1 <0>         0.0949
     48 H15        -7.3121   -4.4790    2.5077 H         1 <0>         0.0550
     49 H16        -7.5011   -4.3214    0.7448 H         1 <0>         0.0549
     50 H17        -9.3879   -1.5875    1.4391 H         1 <0>         0.3744
@<TRIPOS>BOND
     1    1    2 1
     2    1   35 1
     3    1   36 1
     4    1   37 1
     5    2   12 1
     6    2    3 2
     7    3    4 1
     8    3   14 1
     9    4    5 2
    10    4    6 1
    11    6   11 ar
    12    6    7 ar
    13    7    8 ar
    14    7   38 1
    15    8    9 ar
    16    8   39 1
    17    9   10 ar
    18    9   40 1
    19   10   11 ar
    20   10   41 1
    21   11   12 1
    22   12   13 2
    23   14   21 1
    24   14   15 2
    25   15   16 1
    26   15   42 1
    27   16   17 am
    28   16   23 1
    29   17   18 2
    30   17   19 am
    31   19   20 1
    32   19   21 am
    33   21   22 2
    34   23   27 1
    35   23   24 1
    36   23   43 1
    37   24   25 1
    38   24   44 1
    39   24   45 1
    40   25   26 1
    41   25   34 1
    42   25   46 1
    43   26   27 1
    44   26   28 1
    45   26   47 1
    46   28   29 1
    47   28   48 1
    48   28   49 1
    49   29   30 1
    50   30   31 2
    51   30   32 1
    52   30   33 1
    53   34   50 1
@<TRIPOS>MOLECULE
CHEMBL132934__1
   51    54     0     0     0
SMALL
USER_CHARGES

@<TRIPOS>ATOM
      1 C1         -1.6883   -1.3343    2.3154 C.3       1 <0>        -0.1231
      2 C2         -0.7951   -1.3584    1.1018 C.2       1 <0>        -0.1100
      3 C3         -1.2175   -0.7644   -0.0455 C.2       1 <0>        -0.0251
      4 C4         -0.3584   -0.7723   -1.2577 C.2       1 <0>         0.4275
      5 O1         -0.7341   -0.2422   -2.2834 O.2       1 <0>        -0.4085
      6 C5          0.9618   -1.4355   -1.1948 C.ar      1 <0>        -0.1184
      7 C6          1.8009   -1.4685   -2.3021 C.ar      1 <0>        -0.0667
      8 C7          3.0324   -2.0974   -2.2120 C.ar      1 <0>        -0.0997
      9 C8          3.4294   -2.6913   -1.0289 C.ar      1 <0>        -0.1008
     10 C9          2.6027   -2.6664    0.0832 C.ar      1 <0>        -0.0659
     11 C10         1.3652   -2.0392    0.0099 C.ar      1 <0>        -0.1234
     12 C11         0.4672   -1.9940    1.1846 C.2       1 <0>         0.4266
     13 O2          0.8148   -2.5113    2.2299 O.2       1 <0>        -0.4194
     14 C12        -2.5342   -0.1099   -0.0874 C.2       1 <0>        -0.2479
     15 C13        -3.6991   -0.8437    0.0523 C.2       1 <0>         0.2132
     16 N1         -4.8972   -0.2033    0.0086 N.am      1 <0>        -0.5305
     17 C14        -4.9766    1.1250   -0.1675 C.2       1 <0>         0.7034
     18 O3         -6.0730    1.6491   -0.1992 O.2       1 <0>        -0.5341
     19 N2         -3.8842    1.8947   -0.3095 N.am      1 <0>        -0.6534
     20 H1         -3.9824    2.8516   -0.4349 H         1 <0>         0.4336
     21 C15        -2.6512    1.3469   -0.2732 C.2       1 <0>         0.5664
     22 O4         -1.6588    2.0399   -0.3961 O.2       1 <0>        -0.4979
     23 C16        -6.1302   -0.9806    0.1565 C.3       1 <0>         0.3011
     24 C17        -6.9132   -0.4902    1.3933 C.3       1 <0>        -0.1848
     25 C18        -7.4528   -1.8187    1.9899 C.3       1 <0>         0.0767
     26 C19        -6.2912   -2.7865    1.6510 C.3       1 <0>         0.0825
     27 O5         -5.8118   -2.3615    0.3653 O.3       1 <0>        -0.3462
     28 C20        -6.8038   -4.2262    1.5772 C.3       1 <0>         0.1455
     29 O6         -5.7021   -5.1146    1.3797 O.3       1 <0>        -0.7584
     30 P1         -5.8739   -6.7106    1.2555 P.3       1 <0>         2.2110
     31 O7         -6.6282   -7.2452    2.4933 O.2       1 <0>        -1.1085
     32 O8         -6.6776   -7.0442   -0.0211 O.3       1 <0>        -1.1044
     33 O9         -4.4222   -7.4017    1.1717 O.3       1 <0>        -0.8973
     34 O10        -8.6625   -2.2198    1.3434 O.3       1 <0>        -0.5422
     35 H2         -1.1590   -1.7662    3.1647 H         1 <0>         0.0876
     36 H3         -1.9630   -0.3046    2.5439 H         1 <0>         0.0793
     37 H4         -2.5889   -1.9148    2.1152 H         1 <0>         0.0829
     38 H5          1.4944   -1.0064   -3.2289 H         1 <0>         0.1432
     39 H6          3.6857   -2.1240   -3.0716 H         1 <0>         0.1374
     40 H7          4.3913   -3.1788   -0.9706 H         1 <0>         0.1373
     41 H8          2.9195   -3.1333    1.0041 H         1 <0>         0.1441
     42 H9         -3.6567   -1.9135    0.1941 H         1 <0>         0.1943
     43 H10        -6.7441   -0.8738   -0.7378 H         1 <0>         0.1285
     44 H11        -6.2502    0.0107    2.0987 H         1 <0>         0.0931
     45 H12        -7.7336    0.1642    1.0986 H         1 <0>         0.1107
     46 H13        -7.5941   -1.7367    3.0676 H         1 <0>         0.0942
     47 H14        -5.5000   -2.7035    2.3961 H         1 <0>         0.0997
     48 H15        -7.3121   -4.4790    2.5077 H         1 <0>         0.0739
     49 H16        -7.5011   -4.3214    0.7448 H         1 <0>         0.0744
     50 H17        -4.4492   -8.3653    1.0952 H         1 <0>         0.4150
     51 H18        -9.3879   -1.5875    1.4391 H         1 <0>         0.3835
@<TRIPOS>BOND
     1    1    2 1
     2    1   35 1
     3    1   36 1
     4    1   37 1
     5    2   12 1
     6    2    3 2
     7    3    4 1
     8    3   14 1
     9    4    5 2
    10    4    6 1
    11    6   11 ar
    12    6    7 ar
    13    7    8 ar
    14    7   38 1
    15    8    9 ar
    16    8   39 1
    17    9   10 ar
    18    9   40 1
    19   10   11 ar
    20   10   41 1
    21   11   12 1
    22   12   13 2
    23   14   21 1
    24   14   15 2
    25   15   16 1
    26   15   42 1
    27   16   17 am
    28   16   23 1
    29   17   18 2
    30   17   19 am
    31   19   20 1
    32   19   21 am
    33   21   22 2
    34   23   27 1
    35   23   24 1
    36   23   43 1
    37   24   25 1
    38   24   44 1
    39   24   45 1
    40   25   26 1
    41   25   34 1
    42   25   46 1
    43   26   27 1
    44   26   28 1
    45   26   47 1
    46   28   29 1
    47   28   48 1
    48   28   49 1
    49   29   30 1
    50   30   31 2
    51   30   32 1
    52   30   33 1
    53   33   50 1
    54   34   51 1
@<TRIPOS>MOLECULE
CHEMBL132934__2
   50    53     0     0     0
SMALL
USER_CHARGES

@<TRIPOS>ATOM
      1 C1         -1.6883   -1.3343    2.3154 C.3       1 <0>        -0.1279
      2 C2         -0.7951   -1.3584    1.1019 C.2       1 <0>        -0.0954
      3 C3         -1.2175   -0.7644   -0.0455 C.2       1 <0>        -0.0381
      4 C4         -0.3584   -0.7723   -1.2577 C.2       1 <0>         0.4324
      5 O1         -0.7341   -0.2423   -2.2834 O.2       1 <0>        -0.4164
      6 C5          0.9618   -1.4356   -1.1949 C.ar      1 <0>        -0.1171
      7 C6          1.8009   -1.4686   -2.3022 C.ar      1 <0>        -0.0685
      8 C7          3.0324   -2.0975   -2.2120 C.ar      1 <0>        -0.1044
      9 C8          3.4294   -2.6913   -1.0290 C.ar      1 <0>        -0.1020
     10 C9          2.6027   -2.6664    0.0832 C.ar      1 <0>        -0.0666
     11 C10         1.3652   -2.0392    0.0099 C.ar      1 <0>        -0.1166
     12 C11         0.4672   -1.9940    1.1847 C.2       1 <0>         0.4224
     13 O2          0.8148   -2.5112    2.2299 O.2       1 <0>        -0.4097
     14 C12        -2.5342   -0.1099   -0.0874 C.2       1 <0>        -0.2498
     15 C13        -3.6991   -0.8437    0.0523 C.2       1 <0>         0.2216
     16 N1         -4.8972   -0.2033    0.0086 N.am      1 <0>        -0.5176
     17 C14        -4.9766    1.1250   -0.1675 C.2       1 <0>         0.7055
     18 O3         -6.0730    1.6491   -0.1992 O.2       1 <0>        -0.5381
     19 N2         -3.8842    1.8947   -0.3095 N.am      1 <0>        -0.6534
     20 H1         -3.9824    2.8516   -0.4349 H         1 <0>         0.4312
     21 C15        -2.6512    1.3469   -0.2732 C.2       1 <0>         0.5687
     22 O4         -1.6588    2.0399   -0.3961 O.2       1 <0>        -0.5036
     23 C16        -6.1302   -0.9806    0.1565 C.3       1 <0>         0.2978
     24 C17        -6.8806   -0.5728    1.4499 C.3       1 <0>        -0.1886
     25 C18        -7.7110   -1.8427    1.7572 C.3       1 <0>         0.0766
     26 C19        -6.9815   -2.9649    0.9934 C.3       1 <0>         0.0903
     27 O5         -5.8287   -2.3767    0.3680 O.3       1 <0>        -0.3492
     28 C20        -6.5428   -4.0584    1.9695 C.3       1 <0>         0.1347
     29 O6         -5.9720   -5.1467    1.2402 O.3       1 <0>        -0.7490
     30 P1         -5.4018   -6.4746    1.9500 P.3       1 <0>         2.1236
     31 O7         -4.3338   -6.0749    3.0243 O.2       1 <0>        -1.1840
     32 O8         -6.5782   -7.2423    2.6436 O.3       1 <0>        -1.1864
     33 O9         -4.7384   -7.3987    0.8728 O.3       1 <0>        -1.1644
     34 O10        -9.0476   -1.6955    1.2736 O.3       1 <0>        -0.5523
     35 H2         -1.1589   -1.7661    3.1648 H         1 <0>         0.0899
     36 H3         -1.9630   -0.3045    2.5439 H         1 <0>         0.0771
     37 H4         -2.5889   -1.9148    2.1152 H         1 <0>         0.0928
     38 H5          1.4944   -1.0065   -3.2289 H         1 <0>         0.1412
     39 H6          3.6857   -2.1241   -3.0716 H         1 <0>         0.1344
     40 H7          4.3913   -3.1789   -0.9706 H         1 <0>         0.1352
     41 H8          2.9195   -3.1332    1.0041 H         1 <0>         0.1447
     42 H9         -3.6567   -1.9135    0.1941 H         1 <0>         0.2000
     43 H10        -6.7695   -0.8541   -0.7172 H         1 <0>         0.1147
     44 H11        -6.1788   -0.3622    2.2569 H         1 <0>         0.0919
     45 H12        -7.5311    0.2829    1.2688 H         1 <0>         0.1044
     46 H13        -7.7120   -2.0481    2.8277 H         1 <0>         0.0895
     47 H14        -7.6408   -3.3857    0.2342 H         1 <0>         0.0984
     48 H15        -5.8013   -3.6542    2.6586 H         1 <0>         0.0461
     49 H16        -7.4071   -4.4115    2.5320 H         1 <0>         0.0560
     50 H17        -9.5343   -0.9649    1.6790 H         1 <0>         0.3776
@<TRIPOS>BOND
     1    1    2 1
     2    1   35 1
     3    1   36 1
     4    1   37 1
     5    2   12 1
     6    2    3 2
     7    3    4 1
     8    3   14 1
     9    4    5 2
    10    4    6 1
    11    6   11 ar
    12    6    7 ar
    13    7    8 ar
    14    7   38 1
    15    8    9 ar
    16    8   39 1
    17    9   10 ar
    18    9   40 1
    19   10   11 ar
    20   10   41 1
    21   11   12 1
    22   12   13 2
    23   14   21 1
    24   14   15 2
    25   15   16 1
    26   15   42 1
    27   16   17 am
    28   16   23 1
    29   17   18 2
    30   17   19 am
    31   19   20 1
    32   19   21 am
    33   21   22 2
    34   23   27 1
    35   23   24 1
    36   23   43 1
    37   24   25 1
    38   24   44 1
    39   24   45 1
    40   25   26 1
    41   25   34 1
    42   25   46 1
    43   26   27 1
    44   26   28 1
    45   26   47 1
    46   28   29 1
    47   28   48 1
    48   28   49 1
    49   29   30 1
    50   30   31 2
    51   30   32 1
    52   30   33 1
    53   34   50 1
@<TRIPOS>MOLECULE
CHEMBL132934__3
   51    54     0     0     0
SMALL
USER_CHARGES

@<TRIPOS>ATOM
      1 C1         -1.6883   -1.3343    2.3154 C.3       1 <0>        -0.1261
      2 C2         -0.7951   -1.3584    1.1019 C.2       1 <0>        -0.1005
      3 C3         -1.2175   -0.7644   -0.0455 C.2       1 <0>        -0.0351
      4 C4         -0.3584   -0.7723   -1.2577 C.2       1 <0>         0.4296
      5 O1         -0.7341   -0.2423   -2.2834 O.2       1 <0>        -0.4122
      6 C5          0.9618   -1.4356   -1.1949 C.ar      1 <0>        -0.1190
      7 C6          1.8009   -1.4686   -2.3022 C.ar      1 <0>        -0.0672
      8 C7          3.0324   -2.0975   -2.2120 C.ar      1 <0>        -0.1011
      9 C8          3.4294   -2.6913   -1.0290 C.ar      1 <0>        -0.1005
     10 C9          2.6027   -2.6664    0.0832 C.ar      1 <0>        -0.0661
     11 C10         1.3652   -2.0392    0.0099 C.ar      1 <0>        -0.1214
     12 C11         0.4672   -1.9940    1.1847 C.2       1 <0>         0.4235
     13 O2          0.8148   -2.5112    2.2299 O.2       1 <0>        -0.4128
     14 C12        -2.5342   -0.1099   -0.0874 C.2       1 <0>        -0.2420
     15 C13        -3.6991   -0.8437    0.0523 C.2       1 <0>         0.2133
     16 N1         -4.8972   -0.2033    0.0086 N.am      1 <0>        -0.5207
     17 C14        -4.9766    1.1250   -0.1675 C.2       1 <0>         0.7059
     18 O3         -6.0730    1.6491   -0.1992 O.2       1 <0>        -0.5334
     19 N2         -3.8842    1.8947   -0.3095 N.am      1 <0>        -0.6524
     20 H1         -3.9824    2.8516   -0.4349 H         1 <0>         0.4343
     21 C15        -2.6512    1.3469   -0.2732 C.2       1 <0>         0.5662
     22 O4         -1.6588    2.0399   -0.3961 O.2       1 <0>        -0.4957
     23 C16        -6.1302   -0.9806    0.1565 C.3       1 <0>         0.3034
     24 C17        -6.8806   -0.5728    1.4499 C.3       1 <0>        -0.1912
     25 C18        -7.7110   -1.8427    1.7572 C.3       1 <0>         0.0782
     26 C19        -6.9815   -2.9649    0.9934 C.3       1 <0>         0.0887
     27 O5         -5.8287   -2.3767    0.3680 O.3       1 <0>        -0.3565
     28 C20        -6.5428   -4.0584    1.9695 C.3       1 <0>         0.1403
     29 O6         -5.9720   -5.1467    1.2402 O.3       1 <0>        -0.7523
     30 P1         -5.4018   -6.4746    1.9500 P.3       1 <0>         2.2086
     31 O7         -4.3486   -6.0804    3.0094 O.2       1 <0>        -1.1041
     32 O8         -6.5619   -7.2317    2.6340 O.3       1 <0>        -1.1051
     33 O9         -4.7200   -7.4242    0.8430 O.3       1 <0>        -0.8965
     34 O10        -9.0476   -1.6955    1.2736 O.3       1 <0>        -0.5525
     35 H2         -1.1589   -1.7661    3.1648 H         1 <0>         0.0899
     36 H3         -1.9630   -0.3045    2.5439 H         1 <0>         0.0790
     37 H4         -2.5889   -1.9148    2.1152 H         1 <0>         0.0873
     38 H5          1.4944   -1.0065   -3.2289 H         1 <0>         0.1425
     39 H6          3.6857   -2.1241   -3.0716 H         1 <0>         0.1368
     40 H7          4.3913   -3.1789   -0.9706 H         1 <0>         0.1370
     41 H8          2.9195   -3.1332    1.0041 H         1 <0>         0.1447
     42 H9         -3.6567   -1.9135    0.1941 H         1 <0>         0.1954
     43 H10        -6.7695   -0.8541   -0.7172 H         1 <0>         0.1180
     44 H11        -6.1788   -0.3622    2.2569 H         1 <0>         0.0949
     45 H12        -7.5311    0.2829    1.2688 H         1 <0>         0.1099
     46 H13        -7.7120   -2.0481    2.8277 H         1 <0>         0.0911
     47 H14        -7.6408   -3.3857    0.2342 H         1 <0>         0.1039
     48 H15        -5.8013   -3.6542    2.6586 H         1 <0>         0.0657
     49 H16        -7.4071   -4.4115    2.5320 H         1 <0>         0.0756
     50 H17        -4.3539   -8.2448    1.2004 H         1 <0>         0.4153
     51 H18        -9.5343   -0.9649    1.6790 H         1 <0>         0.3854
@<TRIPOS>BOND
     1    1    2 1
     2    1   35 1
     3    1   36 1
     4    1   37 1
     5    2   12 1
     6    2    3 2
     7    3    4 1
     8    3   14 1
     9    4    5 2
    10    4    6 1
    11    6   11 ar
    12    6    7 ar
    13    7    8 ar
    14    7   38 1
    15    8    9 ar
    16    8   39 1
    17    9   10 ar
    18    9   40 1
    19   10   11 ar
    20   10   41 1
    21   11   12 1
    22   12   13 2
    23   14   21 1
    24   14   15 2
    25   15   16 1
    26   15   42 1
    27   16   17 am
    28   16   23 1
    29   17   18 2
    30   17   19 am
    31   19   20 1
    32   19   21 am
    33   21   22 2
    34   23   27 1
    35   23   24 1
    36   23   43 1
    37   24   25 1
    38   24   44 1
    39   24   45 1
    40   25   26 1
    41   25   34 1
    42   25   46 1
    43   26   27 1
    44   26   28 1
    45   26   47 1
    46   28   29 1
    47   28   48 1
    48   28   49 1
    49   29   30 1
    50   30   31 2
    51   30   32 1
    52   30   33 1
    53   33   50 1
    54   34   51 1
@<TRIPOS>MOLECULE
CHEMBL132934__4
   50    53     0     0     0
SMALL
USER_CHARGES

@<TRIPOS>ATOM
      1 C1         -1.6883   -1.3343    2.3154 C.3       1 <0>        -0.1252
      2 C2         -0.7951   -1.3584    1.1018 C.2       1 <0>        -0.1041
      3 C3         -1.2175   -0.7644   -0.0455 C.2       1 <0>        -0.0291
      4 C4         -0.3584   -0.7723   -1.2577 C.2       1 <0>         0.4305
      5 O1         -0.7341   -0.2422   -2.2834 O.2       1 <0>        -0.4130
      6 C5          0.9618   -1.4355   -1.1948 C.ar      1 <0>        -0.1165
      7 C6          1.8009   -1.4685   -2.3021 C.ar      1 <0>        -0.0680
      8 C7          3.0324   -2.0974   -2.2120 C.ar      1 <0>        -0.1030
      9 C8          3.4294   -2.6913   -1.0289 C.ar      1 <0>        -0.1022
     10 C9          2.6027   -2.6664    0.0832 C.ar      1 <0>        -0.0663
     11 C10         1.3652   -2.0392    0.0099 C.ar      1 <0>        -0.1185
     12 C11         0.4672   -1.9940    1.1846 C.2       1 <0>         0.4255
     13 O2          0.8148   -2.5113    2.2299 O.2       1 <0>        -0.4160
     14 C12        -2.5342   -0.1099   -0.0874 C.2       1 <0>        -0.2540
     15 C13        -3.6991   -0.8437    0.0523 C.2       1 <0>         0.2207
     16 N1         -4.8972   -0.2033    0.0086 N.am      1 <0>        -0.5265
     17 C14        -4.9766    1.1250   -0.1675 C.2       1 <0>         0.7036
     18 O3         -6.0730    1.6491   -0.1992 O.2       1 <0>        -0.5387
     19 N2         -3.8842    1.8947   -0.3095 N.am      1 <0>        -0.6542
     20 H1         -3.9824    2.8516   -0.4349 H         1 <0>         0.4307
     21 C15        -2.6512    1.3469   -0.2732 C.2       1 <0>         0.5689
     22 O4         -1.6588    2.0399   -0.3961 O.2       1 <0>        -0.5051
     23 C16        -6.1302   -0.9806    0.1565 C.3       1 <0>         0.2932
     24 C17        -6.9132   -0.4902    1.3933 C.3       1 <0>        -0.1856
     25 C18        -7.4528   -1.8187    1.9899 C.3       1 <0>         0.0769
     26 C19        -6.2912   -2.7865    1.6510 C.3       1 <0>         0.0832
     27 O5         -5.8118   -2.3615    0.3653 O.3       1 <0>        -0.3380
     28 C20        -6.8038   -4.2262    1.5772 C.3       1 <0>         0.1359
     29 O6         -5.7021   -5.1146    1.3797 O.3       1 <0>        -0.7513
     30 P1         -5.8739   -6.7106    1.2555 P.3       1 <0>         2.1257
     31 O7         -6.6387   -7.2527    2.5107 O.2       1 <0>        -1.1875
     32 O8         -6.6889   -7.0489   -0.0390 O.3       1 <0>        -1.1855
     33 O9         -4.4613   -7.3831    1.1740 O.3       1 <0>        -1.1646
     34 O10        -7.6380   -1.7112    3.4027 O.3       1 <0>        -0.5412
     35 H2         -1.1590   -1.7662    3.1647 H         1 <0>         0.0879
     36 H3         -1.9630   -0.3046    2.5439 H         1 <0>         0.0776
     37 H4         -2.5889   -1.9148    2.1152 H         1 <0>         0.0885
     38 H5          1.4944   -1.0064   -3.2289 H         1 <0>         0.1419
     39 H6          3.6857   -2.1240   -3.0716 H         1 <0>         0.1351
     40 H7          4.3913   -3.1788   -0.9706 H         1 <0>         0.1354
     41 H8          2.9195   -3.1333    1.0041 H         1 <0>         0.1442
     42 H9         -3.6567   -1.9135    0.1941 H         1 <0>         0.1989
     43 H10        -6.7441   -0.8738   -0.7378 H         1 <0>         0.1272
     44 H11        -6.2502    0.0107    2.0987 H         1 <0>         0.0907
     45 H12        -7.7336    0.1642    1.0986 H         1 <0>         0.1044
     46 H13        -8.3755   -2.1246    1.4968 H         1 <0>         0.0902
     47 H14        -5.5000   -2.7035    2.3961 H         1 <0>         0.0926
     48 H15        -7.3121   -4.4790    2.5077 H         1 <0>         0.0623
     49 H16        -7.5011   -4.3214    0.7448 H         1 <0>         0.0442
     50 H17        -8.2805   -1.0378    3.6651 H         1 <0>         0.3783
@<TRIPOS>BOND
     1    1    2 1
     2    1   35 1
     3    1   36 1
     4    1   37 1
     5    2   12 1
     6    2    3 2
     7    3    4 1
     8    3   14 1
     9    4    5 2
    10    4    6 1
    11    6   11 ar
    12    6    7 ar
    13    7    8 ar
    14    7   38 1
    15    8    9 ar
    16    8   39 1
    17    9   10 ar
    18    9   40 1
    19   10   11 ar
    20   10   41 1
    21   11   12 1
    22   12   13 2
    23   14   21 1
    24   14   15 2
    25   15   16 1
    26   15   42 1
    27   16   17 am
    28   16   23 1
    29   17   18 2
    30   17   19 am
    31   19   20 1
    32   19   21 am
    33   21   22 2
    34   23   27 1
    35   23   24 1
    36   23   43 1
    37   24   25 1
    38   24   44 1
    39   24   45 1
    40   25   26 1
    41   25   34 1
    42   25   46 1
    43   26   27 1
    44   26   28 1
    45   26   47 1
    46   28   29 1
    47   28   48 1
    48   28   49 1
    49   29   30 1
    50   30   31 2
    51   30   32 1
    52   30   33 1
    53   34   50 1
@<TRIPOS>MOLECULE
CHEMBL132934__5
   51    54     0     0     0
SMALL
USER_CHARGES

@<TRIPOS>ATOM
      1 C1         -1.6883   -1.3343    2.3154 C.3       1 <0>        -0.1235
      2 C2         -0.7951   -1.3584    1.1018 C.2       1 <0>        -0.1083
      3 C3         -1.2175   -0.7644   -0.0455 C.2       1 <0>        -0.0269
      4 C4         -0.3584   -0.7723   -1.2577 C.2       1 <0>         0.4280
      5 O1         -0.7341   -0.2422   -2.2834 O.2       1 <0>        -0.4091
      6 C5          0.9618   -1.4355   -1.1948 C.ar      1 <0>        -0.1184
      7 C6          1.8009   -1.4685   -2.3021 C.ar      1 <0>        -0.0667
      8 C7          3.0324   -2.0974   -2.2120 C.ar      1 <0>        -0.0998
      9 C8          3.4294   -2.6913   -1.0289 C.ar      1 <0>        -0.1007
     10 C9          2.6027   -2.6664    0.0832 C.ar      1 <0>        -0.0659
     11 C10         1.3652   -2.0392    0.0099 C.ar      1 <0>        -0.1231
     12 C11         0.4672   -1.9940    1.1846 C.2       1 <0>         0.4262
     13 O2          0.8148   -2.5113    2.2299 O.2       1 <0>        -0.4186
     14 C12        -2.5342   -0.1099   -0.0874 C.2       1 <0>        -0.2460
     15 C13        -3.6991   -0.8437    0.0523 C.2       1 <0>         0.2126
     16 N1         -4.8972   -0.2033    0.0086 N.am      1 <0>        -0.5298
     17 C14        -4.9766    1.1250   -0.1675 C.2       1 <0>         0.7042
     18 O3         -6.0730    1.6491   -0.1992 O.2       1 <0>        -0.5341
     19 N2         -3.8842    1.8947   -0.3095 N.am      1 <0>        -0.6531
     20 H1         -3.9824    2.8516   -0.4349 H         1 <0>         0.4338
     21 C15        -2.6512    1.3469   -0.2732 C.2       1 <0>         0.5664
     22 O4         -1.6588    2.0399   -0.3961 O.2       1 <0>        -0.4972
     23 C16        -6.1302   -0.9806    0.1565 C.3       1 <0>         0.2986
     24 C17        -6.9132   -0.4902    1.3933 C.3       1 <0>        -0.1877
     25 C18        -7.4528   -1.8187    1.9899 C.3       1 <0>         0.0784
     26 C19        -6.2912   -2.7865    1.6510 C.3       1 <0>         0.0811
     27 O5         -5.8118   -2.3615    0.3653 O.3       1 <0>        -0.3450
     28 C20        -6.8038   -4.2262    1.5772 C.3       1 <0>         0.1419
     29 O6         -5.7021   -5.1146    1.3797 O.3       1 <0>        -0.7545
     30 P1         -5.8739   -6.7106    1.2555 P.3       1 <0>         2.2104
     31 O7         -6.6282   -7.2452    2.4933 O.2       1 <0>        -1.1071
     32 O8         -6.6776   -7.0442   -0.0211 O.3       1 <0>        -1.1044
     33 O9         -4.4222   -7.4017    1.1717 O.3       1 <0>        -0.8966
     34 O10        -7.6380   -1.7112    3.4027 O.3       1 <0>        -0.5438
     35 H2         -1.1590   -1.7662    3.1647 H         1 <0>         0.0878
     36 H3         -1.9630   -0.3046    2.5439 H         1 <0>         0.0794
     37 H4         -2.5889   -1.9148    2.1152 H         1 <0>         0.0833
     38 H5          1.4944   -1.0064   -3.2289 H         1 <0>         0.1431
     39 H6          3.6857   -2.1240   -3.0716 H         1 <0>         0.1374
     40 H7          4.3913   -3.1788   -0.9706 H         1 <0>         0.1373
     41 H8          2.9195   -3.1333    1.0041 H         1 <0>         0.1441
     42 H9         -3.6567   -1.9135    0.1941 H         1 <0>         0.1944
     43 H10        -6.7441   -0.8738   -0.7378 H         1 <0>         0.1307
     44 H11        -6.2502    0.0107    2.0987 H         1 <0>         0.0943
     45 H12        -7.7336    0.1642    1.0986 H         1 <0>         0.1100
     46 H13        -8.3755   -2.1246    1.4968 H         1 <0>         0.0929
     47 H14        -5.5000   -2.7035    2.3961 H         1 <0>         0.0977
     48 H15        -7.3121   -4.4790    2.5077 H         1 <0>         0.0806
     49 H16        -7.5011   -4.3214    0.7448 H         1 <0>         0.0645
     50 H17        -4.4492   -8.3653    1.0952 H         1 <0>         0.4153
     51 H18        -8.2805   -1.0378    3.6651 H         1 <0>         0.3862
@<TRIPOS>BOND
     1    1    2 1
     2    1   35 1
     3    1   36 1
     4    1   37 1
     5    2   12 1
     6    2    3 2
     7    3    4 1
     8    3   14 1
     9    4    5 2
    10    4    6 1
    11    6   11 ar
    12    6    7 ar
    13    7    8 ar
    14    7   38 1
    15    8    9 ar
    16    8   39 1
    17    9   10 ar
    18    9   40 1
    19   10   11 ar
    20   10   41 1
    21   11   12 1
    22   12   13 2
    23   14   21 1
    24   14   15 2
    25   15   16 1
    26   15   42 1
    27   16   17 am
    28   16   23 1
    29   17   18 2
    30   17   19 am
    31   19   20 1
    32   19   21 am
    33   21   22 2
    34   23   27 1
    35   23   24 1
    36   23   43 1
    37   24   25 1
    38   24   44 1
    39   24   45 1
    40   25   26 1
    41   25   34 1
    42   25   46 1
    43   26   27 1
    44   26   28 1
    45   26   47 1
    46   28   29 1
    47   28   48 1
    48   28   49 1
    49   29   30 1
    50   30   31 2
    51   30   32 1
    52   30   33 1
    53   33   50 1
    54   34   51 1
@<TRIPOS>MOLECULE
CHEMBL132934__6
   50    53     0     0     0
SMALL
USER_CHARGES

@<TRIPOS>ATOM
      1 C1         -1.6883   -1.3343    2.3154 C.3       1 <0>        -0.1281
      2 C2         -0.7951   -1.3584    1.1019 C.2       1 <0>        -0.0940
      3 C3         -1.2175   -0.7644   -0.0455 C.2       1 <0>        -0.0396
      4 C4         -0.3584   -0.7723   -1.2577 C.2       1 <0>         0.4329
      5 O1         -0.7341   -0.2423   -2.2834 O.2       1 <0>        -0.4170
      6 C5          0.9618   -1.4356   -1.1949 C.ar      1 <0>        -0.1172
      7 C6          1.8009   -1.4686   -2.3022 C.ar      1 <0>        -0.0685
      8 C7          3.0324   -2.0975   -2.2120 C.ar      1 <0>        -0.1046
      9 C8          3.4294   -2.6913   -1.0290 C.ar      1 <0>        -0.1019
     10 C9          2.6027   -2.6664    0.0832 C.ar      1 <0>        -0.0666
     11 C10         1.3652   -2.0392    0.0099 C.ar      1 <0>        -0.1163
     12 C11         0.4672   -1.9940    1.1847 C.2       1 <0>         0.4220
     13 O2          0.8148   -2.5112    2.2299 O.2       1 <0>        -0.4090
     14 C12        -2.5342   -0.1099   -0.0874 C.2       1 <0>        -0.2491
     15 C13        -3.6991   -0.8437    0.0523 C.2       1 <0>         0.2223
     16 N1         -4.8972   -0.2033    0.0086 N.am      1 <0>        -0.5166
     17 C14        -4.9766    1.1250   -0.1675 C.2       1 <0>         0.7060
     18 O3         -6.0730    1.6491   -0.1992 O.2       1 <0>        -0.5395
     19 N2         -3.8842    1.8947   -0.3095 N.am      1 <0>        -0.6534
     20 H1         -3.9824    2.8516   -0.4349 H         1 <0>         0.4312
     21 C15        -2.6512    1.3469   -0.2732 C.2       1 <0>         0.5687
     22 O4         -1.6588    2.0399   -0.3961 O.2       1 <0>        -0.5034
     23 C16        -6.1302   -0.9806    0.1565 C.3       1 <0>         0.2955
     24 C17        -6.8806   -0.5728    1.4499 C.3       1 <0>        -0.1920
     25 C18        -7.7110   -1.8427    1.7572 C.3       1 <0>         0.0810
     26 C19        -6.9815   -2.9649    0.9934 C.3       1 <0>         0.0856
     27 O5         -5.8287   -2.3767    0.3680 O.3       1 <0>        -0.3486
     28 C20        -6.5428   -4.0584    1.9695 C.3       1 <0>         0.1455
     29 O6         -5.9720   -5.1467    1.2402 O.3       1 <0>        -0.7571
     30 P1         -5.4018   -6.4746    1.9500 P.3       1 <0>         2.1283
     31 O7         -4.3338   -6.0749    3.0243 O.2       1 <0>        -1.1861
     32 O8         -6.5782   -7.2423    2.6436 O.3       1 <0>        -1.1890
     33 O9         -4.7384   -7.3987    0.8728 O.3       1 <0>        -1.1680
     34 O10        -7.7124   -2.1119    3.1606 O.3       1 <0>        -0.5358
     35 H2         -1.1589   -1.7661    3.1648 H         1 <0>         0.0900
     36 H3         -1.9630   -0.3045    2.5439 H         1 <0>         0.0770
     37 H4         -2.5889   -1.9148    2.1152 H         1 <0>         0.0934
     38 H5          1.4944   -1.0065   -3.2289 H         1 <0>         0.1412
     39 H6          3.6857   -2.1241   -3.0716 H         1 <0>         0.1344
     40 H7          4.3913   -3.1789   -0.9706 H         1 <0>         0.1352
     41 H8          2.9195   -3.1332    1.0041 H         1 <0>         0.1448
     42 H9         -3.6567   -1.9135    0.1941 H         1 <0>         0.2001
     43 H10        -6.7695   -0.8541   -0.7172 H         1 <0>         0.1134
     44 H11        -6.1788   -0.3622    2.2569 H         1 <0>         0.0944
     45 H12        -7.5311    0.2829    1.2688 H         1 <0>         0.1012
     46 H13        -8.7305   -1.7304    1.3883 H         1 <0>         0.0810
     47 H14        -7.6408   -3.3857    0.2342 H         1 <0>         0.0960
     48 H15        -5.8013   -3.6542    2.6586 H         1 <0>         0.0486
     49 H16        -7.4071   -4.4115    2.5320 H         1 <0>         0.0587
     50 H17        -8.1076   -1.4099    3.6954 H         1 <0>         0.3733
@<TRIPOS>BOND
     1    1    2 1
     2    1   35 1
     3    1   36 1
     4    1   37 1
     5    2   12 1
     6    2    3 2
     7    3    4 1
     8    3   14 1
     9    4    5 2
    10    4    6 1
    11    6   11 ar
    12    6    7 ar
    13    7    8 ar
    14    7   38 1
    15    8    9 ar
    16    8   39 1
    17    9   10 ar
    18    9   40 1
    19   10   11 ar
    20   10   41 1
    21   11   12 1
    22   12   13 2
    23   14   21 1
    24   14   15 2
    25   15   16 1
    26   15   42 1
    27   16   17 am
    28   16   23 1
    29   17   18 2
    30   17   19 am
    31   19   20 1
    32   19   21 am
    33   21   22 2
    34   23   27 1
    35   23   24 1
    36   23   43 1
    37   24   25 1
    38   24   44 1
    39   24   45 1
    40   25   26 1
    41   25   34 1
    42   25   46 1
    43   26   27 1
    44   26   28 1
    45   26   47 1
    46   28   29 1
    47   28   48 1
    48   28   49 1
    49   29   30 1
    50   30   31 2
    51   30   32 1
    52   30   33 1
    53   34   50 1
@<TRIPOS>MOLECULE
CHEMBL132934__7
   51    54     0     0     0
SMALL
USER_CHARGES

@<TRIPOS>ATOM
      1 C1         -1.6883   -1.3343    2.3154 C.3       1 <0>        -0.1262
      2 C2         -0.7951   -1.3584    1.1019 C.2       1 <0>        -0.0991
      3 C3         -1.2175   -0.7644   -0.0455 C.2       1 <0>        -0.0366
      4 C4         -0.3584   -0.7723   -1.2577 C.2       1 <0>         0.4301
      5 O1         -0.7341   -0.2423   -2.2834 O.2       1 <0>        -0.4128
      6 C5          0.9618   -1.4356   -1.1949 C.ar      1 <0>        -0.1191
      7 C6          1.8009   -1.4686   -2.3022 C.ar      1 <0>        -0.0672
      8 C7          3.0324   -2.0975   -2.2120 C.ar      1 <0>        -0.1013
      9 C8          3.4294   -2.6913   -1.0290 C.ar      1 <0>        -0.1005
     10 C9          2.6027   -2.6664    0.0832 C.ar      1 <0>        -0.0661
     11 C10         1.3652   -2.0392    0.0099 C.ar      1 <0>        -0.1211
     12 C11         0.4672   -1.9940    1.1847 C.2       1 <0>         0.4232
     13 O2          0.8148   -2.5112    2.2299 O.2       1 <0>        -0.4121
     14 C12        -2.5342   -0.1099   -0.0874 C.2       1 <0>        -0.2413
     15 C13        -3.6991   -0.8437    0.0523 C.2       1 <0>         0.2139
     16 N1         -4.8972   -0.2033    0.0086 N.am      1 <0>        -0.5198
     17 C14        -4.9766    1.1250   -0.1675 C.2       1 <0>         0.7064
     18 O3         -6.0730    1.6491   -0.1992 O.2       1 <0>        -0.5348
     19 N2         -3.8842    1.8947   -0.3095 N.am      1 <0>        -0.6524
     20 H1         -3.9824    2.8516   -0.4349 H         1 <0>         0.4343
     21 C15        -2.6512    1.3469   -0.2732 C.2       1 <0>         0.5661
     22 O4         -1.6588    2.0399   -0.3961 O.2       1 <0>        -0.4955
     23 C16        -6.1302   -0.9806    0.1565 C.3       1 <0>         0.3011
     24 C17        -6.8806   -0.5728    1.4499 C.3       1 <0>        -0.1944
     25 C18        -7.7110   -1.8427    1.7572 C.3       1 <0>         0.0815
     26 C19        -6.9815   -2.9649    0.9934 C.3       1 <0>         0.0864
     27 O5         -5.8287   -2.3767    0.3680 O.3       1 <0>        -0.3561
     28 C20        -6.5428   -4.0584    1.9695 C.3       1 <0>         0.1499
     29 O6         -5.9720   -5.1467    1.2402 O.3       1 <0>        -0.7593
     30 P1         -5.4018   -6.4746    1.9500 P.3       1 <0>         2.2097
     31 O7         -4.3486   -6.0804    3.0094 O.2       1 <0>        -1.1053
     32 O8         -6.5619   -7.2317    2.6340 O.3       1 <0>        -1.1068
     33 O9         -4.7200   -7.4242    0.8430 O.3       1 <0>        -0.8977
     34 O10        -7.7124   -2.1119    3.1606 O.3       1 <0>        -0.5435
     35 H2         -1.1589   -1.7661    3.1648 H         1 <0>         0.0901
     36 H3         -1.9630   -0.3045    2.5439 H         1 <0>         0.0789
     37 H4         -2.5889   -1.9148    2.1152 H         1 <0>         0.0879
     38 H5          1.4944   -1.0065   -3.2289 H         1 <0>         0.1424
     39 H6          3.6857   -2.1241   -3.0716 H         1 <0>         0.1367
     40 H7          4.3913   -3.1789   -0.9706 H         1 <0>         0.1370
     41 H8          2.9195   -3.1332    1.0041 H         1 <0>         0.1448
     42 H9         -3.6567   -1.9135    0.1941 H         1 <0>         0.1954
     43 H10        -6.7695   -0.8541   -0.7172 H         1 <0>         0.1169
     44 H11        -6.1788   -0.3622    2.2569 H         1 <0>         0.0972
     45 H12        -7.5311    0.2829    1.2688 H         1 <0>         0.1070
     46 H13        -8.7305   -1.7304    1.3883 H         1 <0>         0.0874
     47 H14        -7.6408   -3.3857    0.2342 H         1 <0>         0.1011
     48 H15        -5.8013   -3.6542    2.6586 H         1 <0>         0.0679
     49 H16        -7.4071   -4.4115    2.5320 H         1 <0>         0.0782
     50 H17        -4.3539   -8.2448    1.2004 H         1 <0>         0.4146
     51 H18        -8.1076   -1.4099    3.6954 H         1 <0>         0.3829
@<TRIPOS>BOND
     1    1    2 1
     2    1   35 1
     3    1   36 1
     4    1   37 1
     5    2   12 1
     6    2    3 2
     7    3    4 1
     8    3   14 1
     9    4    5 2
    10    4    6 1
    11    6   11 ar
    12    6    7 ar
    13    7    8 ar
    14    7   38 1
    15    8    9 ar
    16    8   39 1
    17    9   10 ar
    18    9   40 1
    19   10   11 ar
    20   10   41 1
    21   11   12 1
    22   12   13 2
    23   14   21 1
    24   14   15 2
    25   15   16 1
    26   15   42 1
    27   16   17 am
    28   16   23 1
    29   17   18 2
    30   17   19 am
    31   19   20 1
    32   19   21 am
    33   21   22 2
    34   23   27 1
    35   23   24 1
    36   23   43 1
    37   24   25 1
    38   24   44 1
    39   24   45 1
    40   25   26 1
    41   25   34 1
    42   25   46 1
    43   26   27 1
    44   26   28 1
    45   26   47 1
    46   28   29 1
    47   28   48 1
    48   28   49 1
    49   29   30 1
    50   30   31 2
    51   30   32 1
    52   30   33 1
    53   33   50 1
    54   34   51 1
@<TRIPOS>MOLECULE
CHEMBL132934__8
   50    53     0     0     0
SMALL
USER_CHARGES

@<TRIPOS>ATOM
      1 C1         -1.6882   -1.3342    2.3154 C.3       1 <0>        -0.1172
      2 C2         -0.7951   -1.3583    1.1019 C.2       1 <0>        -0.1307
      3 C3         -1.2175   -0.7644   -0.0455 C.2       1 <0>        -0.0027
      4 C4         -0.3584   -0.7723   -1.2577 C.2       1 <0>         0.4175
      5 O1         -0.7342   -0.2423   -2.2834 O.2       1 <0>        -0.3938
      6 C5          0.9618   -1.4356   -1.1949 C.ar      1 <0>        -0.1136
      7 C6          1.8009   -1.4686   -2.3022 C.ar      1 <0>        -0.0672
      8 C7          3.0324   -2.0975   -2.2121 C.ar      1 <0>        -0.0986
      9 C8          3.4294   -2.6913   -1.0290 C.ar      1 <0>        -0.1046
     10 C9          2.6027   -2.6664    0.0832 C.ar      1 <0>        -0.0679
     11 C10         1.3652   -2.0392    0.0099 C.ar      1 <0>        -0.1260
     12 C11         0.4673   -1.9940    1.1847 C.2       1 <0>         0.4319
     13 O2          0.8148   -2.5112    2.2299 O.2       1 <0>        -0.4305
     14 C12        -2.5342   -0.1099   -0.0874 C.2       1 <0>        -0.2613
     15 C13        -3.6991   -0.8437    0.0523 C.2       1 <0>         0.2193
     16 N1         -4.8972   -0.2033    0.0086 N.am      1 <0>        -0.5129
     17 C14        -4.9766    1.1250   -0.1675 C.2       1 <0>         0.6847
     18 O3         -6.0730    1.6491   -0.1992 O.2       1 <0>        -0.4758
     19 N2         -3.8842    1.8947   -0.3095 N.am      1 <0>        -0.6546
     20 H1         -3.9824    2.8516   -0.4349 H         1 <0>         0.4340
     21 C15        -2.6512    1.3469   -0.2732 C.2       1 <0>         0.5712
     22 O4         -1.6588    2.0399   -0.3961 O.2       1 <0>        -0.5092
     23 C16        -6.1302   -0.9806    0.1565 C.3       1 <0>         0.2859
     24 C17        -6.9065   -0.5239    1.4115 C.3       1 <0>        -0.1932
     25 C18        -8.3897   -0.6081    0.9868 C.3       1 <0>         0.0840
     26 C19        -8.3340   -1.1058   -0.4746 C.3       1 <0>         0.0865
     27 O5         -7.0250   -0.7189   -0.9465 O.3       1 <0>        -0.3313
     28 C20        -9.4227   -0.4289   -1.3096 C.3       1 <0>         0.1481
     29 O6         -9.4298   -0.9866   -2.6252 O.3       1 <0>        -0.7582
     30 P1        -10.4510   -0.5090   -3.7747 P.3       1 <0>         2.1312
     31 O7        -11.9222   -0.6338   -3.2510 O.2       1 <0>        -1.1906
     32 O8        -10.1548    0.9832   -4.1492 O.3       1 <0>        -1.1868
     33 O9        -10.2695   -1.4114   -5.0424 O.3       1 <0>        -1.1697
     34 O10        -9.0037    0.6805    1.0539 O.3       1 <0>        -0.5294
     35 H2         -1.1589   -1.7661    3.1648 H         1 <0>         0.0832
     36 H3         -1.9630   -0.3045    2.5439 H         1 <0>         0.0804
     37 H4         -2.5888   -1.9147    2.1153 H         1 <0>         0.0781
     38 H5          1.4944   -1.0065   -3.2289 H         1 <0>         0.1447
     39 H6          3.6857   -2.1241   -3.0716 H         1 <0>         0.1370
     40 H7          4.3913   -3.1789   -0.9707 H         1 <0>         0.1354
     41 H8          2.9195   -3.1332    1.0041 H         1 <0>         0.1421
     42 H9         -3.6567   -1.9135    0.1941 H         1 <0>         0.1831
     43 H10        -5.9021   -2.0448    0.2158 H         1 <0>         0.1152
     44 H11        -6.7099   -1.1951    2.2475 H         1 <0>         0.0885
     45 H12        -6.6416    0.5007    1.6727 H         1 <0>         0.0982
     46 H13        -8.9264   -1.3210    1.6128 H         1 <0>         0.0774
     47 H14        -8.4454   -2.1894   -0.5109 H         1 <0>         0.0917
     48 H15       -10.3934   -0.5909   -0.8410 H         1 <0>         0.0537
     49 H16        -9.2223    0.6409   -1.3696 H         1 <0>         0.0552
     50 H17        -9.0111    1.0670    1.9402 H         1 <0>         0.3675
@<TRIPOS>BOND
     1    1    2 1
     2    1   35 1
     3    1   36 1
     4    1   37 1
     5    2   12 1
     6    2    3 2
     7    3    4 1
     8    3   14 1
     9    4    5 2
    10    4    6 1
    11    6   11 ar
    12    6    7 ar
    13    7    8 ar
    14    7   38 1
    15    8    9 ar
    16    8   39 1
    17    9   10 ar
    18    9   40 1
    19   10   11 ar
    20   10   41 1
    21   11   12 1
    22   12   13 2
    23   14   21 1
    24   14   15 2
    25   15   16 1
    26   15   42 1
    27   16   17 am
    28   16   23 1
    29   17   18 2
    30   17   19 am
    31   19   20 1
    32   19   21 am
    33   21   22 2
    34   23   27 1
    35   23   24 1
    36   23   43 1
    37   24   25 1
    38   24   44 1
    39   24   45 1
    40   25   26 1
    41   25   34 1
    42   25   46 1
    43   26   27 1
    44   26   28 1
    45   26   47 1
    46   28   29 1
    47   28   48 1
    48   28   49 1
    49   29   30 1
    50   30   31 2
    51   30   32 1
    52   30   33 1
    53   34   50 1
@<TRIPOS>MOLECULE
CHEMBL132934__9
   51    54     0     0     0
SMALL
USER_CHARGES

@<TRIPOS>ATOM
      1 C1         -1.6882   -1.3342    2.3154 C.3       1 <0>        -0.1194
      2 C2         -0.7951   -1.3583    1.1019 C.2       1 <0>        -0.1206
      3 C3         -1.2175   -0.7644   -0.0455 C.2       1 <0>        -0.0150
      4 C4         -0.3584   -0.7723   -1.2577 C.2       1 <0>         0.4215
      5 O1         -0.7342   -0.2423   -2.2834 O.2       1 <0>        -0.3994
      6 C5          0.9618   -1.4356   -1.1949 C.ar      1 <0>        -0.1170
      7 C6          1.8009   -1.4686   -2.3022 C.ar      1 <0>        -0.0665
      8 C7          3.0324   -2.0975   -2.2121 C.ar      1 <0>        -0.0977
      9 C8          3.4294   -2.6913   -1.0290 C.ar      1 <0>        -0.1018
     10 C9          2.6027   -2.6664    0.0832 C.ar      1 <0>        -0.0665
     11 C10         1.3652   -2.0392    0.0099 C.ar      1 <0>        -0.1268
     12 C11         0.4673   -1.9940    1.1847 C.2       1 <0>         0.4293
     13 O2          0.8148   -2.5112    2.2299 O.2       1 <0>        -0.4251
     14 C12        -2.5342   -0.1099   -0.0874 C.2       1 <0>        -0.2448
     15 C13        -3.6991   -0.8437    0.0523 C.2       1 <0>         0.2081
     16 N1         -4.8972   -0.2033    0.0086 N.am      1 <0>        -0.5165
     17 C14        -4.9766    1.1250   -0.1675 C.2       1 <0>         0.6889
     18 O3         -6.0730    1.6491   -0.1992 O.2       1 <0>        -0.4862
     19 N2         -3.8842    1.8947   -0.3095 N.am      1 <0>        -0.6548
     20 H1         -3.9824    2.8516   -0.4349 H         1 <0>         0.4351
     21 C15        -2.6512    1.3469   -0.2732 C.2       1 <0>         0.5677
     22 O4         -1.6588    2.0399   -0.3961 O.2       1 <0>        -0.4999
     23 C16        -6.1302   -0.9806    0.1565 C.3       1 <0>         0.2925
     24 C17        -6.9065   -0.5239    1.4115 C.3       1 <0>        -0.1955
     25 C18        -8.3897   -0.6081    0.9868 C.3       1 <0>         0.0851
     26 C19        -8.3340   -1.1058   -0.4746 C.3       1 <0>         0.0860
     27 O5         -7.0250   -0.7189   -0.9465 O.3       1 <0>        -0.3386
     28 C20        -9.4227   -0.4289   -1.3096 C.3       1 <0>         0.1530
     29 O6         -9.4298   -0.9866   -2.6252 O.3       1 <0>        -0.7602
     30 P1        -10.4510   -0.5090   -3.7747 P.3       1 <0>         2.2119
     31 O7        -11.9019   -0.6321   -3.2582 O.2       1 <0>        -1.1095
     32 O8        -10.1589    0.9625   -4.1440 O.3       1 <0>        -1.1050
     33 O9        -10.2645   -1.4364   -5.0774 O.3       1 <0>        -0.8979
     34 O10        -9.0037    0.6805    1.0539 O.3       1 <0>        -0.5364
     35 H2         -1.1589   -1.7661    3.1648 H         1 <0>         0.0857
     36 H3         -1.9630   -0.3045    2.5439 H         1 <0>         0.0811
     37 H4         -2.5888   -1.9147    2.1153 H         1 <0>         0.0781
     38 H5          1.4944   -1.0065   -3.2289 H         1 <0>         0.1444
     39 H6          3.6857   -2.1241   -3.0716 H         1 <0>         0.1382
     40 H7          4.3913   -3.1789   -0.9707 H         1 <0>         0.1372
     41 H8          2.9195   -3.1332    1.0041 H         1 <0>         0.1433
     42 H9         -3.6567   -1.9135    0.1941 H         1 <0>         0.1839
     43 H10        -5.9021   -2.0448    0.2158 H         1 <0>         0.1180
     44 H11        -6.7099   -1.1951    2.2475 H         1 <0>         0.0936
     45 H12        -6.6416    0.5007    1.6727 H         1 <0>         0.1021
     46 H13        -8.9264   -1.3210    1.6128 H         1 <0>         0.0824
     47 H14        -8.4454   -2.1894   -0.5109 H         1 <0>         0.0961
     48 H15       -10.3934   -0.5909   -0.8410 H         1 <0>         0.0726
     49 H16        -9.2223    0.6409   -1.3696 H         1 <0>         0.0746
     50 H17       -10.8494   -1.2051   -5.8119 H         1 <0>         0.4141
     51 H18        -9.0111    1.0670    1.9402 H         1 <0>         0.3768
@<TRIPOS>BOND
     1    1    2 1
     2    1   35 1
     3    1   36 1
     4    1   37 1
     5    2   12 1
     6    2    3 2
     7    3    4 1
     8    3   14 1
     9    4    5 2
    10    4    6 1
    11    6   11 ar
    12    6    7 ar
    13    7    8 ar
    14    7   38 1
    15    8    9 ar
    16    8   39 1
    17    9   10 ar
    18    9   40 1
    19   10   11 ar
    20   10   41 1
    21   11   12 1
    22   12   13 2
    23   14   21 1
    24   14   15 2
    25   15   16 1
    26   15   42 1
    27   16   17 am
    28   16   23 1
    29   17   18 2
    30   17   19 am
    31   19   20 1
    32   19   21 am
    33   21   22 2
    34   23   27 1
    35   23   24 1
    36   23   43 1
    37   24   25 1
    38   24   44 1
    39   24   45 1
    40   25   26 1
    41   25   34 1
    42   25   46 1
    43   26   27 1
    44   26   28 1
    45   26   47 1
    46   28   29 1
    47   28   48 1
    48   28   49 1
    49   29   30 1
    50   30   31 2
    51   30   32 1
    52   30   33 1
    53   33   50 1
    54   34   51 1
@<TRIPOS>MOLECULE
CHEMBL132934__10
   50    53     0     0     0
SMALL
USER_CHARGES

@<TRIPOS>ATOM
      1 C1         -1.6882   -1.3342    2.3154 C.3       1 <0>        -0.1180
      2 C2         -0.7951   -1.3583    1.1019 C.2       1 <0>        -0.1283
      3 C3         -1.2175   -0.7644   -0.0455 C.2       1 <0>        -0.0052
      4 C4         -0.3584   -0.7723   -1.2577 C.2       1 <0>         0.4189
      5 O1         -0.7342   -0.2423   -2.2834 O.2       1 <0>        -0.3955
      6 C5          0.9618   -1.4356   -1.1949 C.ar      1 <0>        -0.1138
      7 C6          1.8009   -1.4686   -2.3022 C.ar      1 <0>        -0.0669
      8 C7          3.0324   -2.0975   -2.2121 C.ar      1 <0>        -0.0986
      9 C8          3.4294   -2.6913   -1.0290 C.ar      1 <0>        -0.1044
     10 C9          2.6027   -2.6664    0.0832 C.ar      1 <0>        -0.0677
     11 C10         1.3652   -2.0392    0.0099 C.ar      1 <0>        -0.1257
     12 C11         0.4673   -1.9940    1.1847 C.2       1 <0>         0.4317
     13 O2          0.8148   -2.5112    2.2299 O.2       1 <0>        -0.4296
     14 C12        -2.5342   -0.1099   -0.0874 C.2       1 <0>        -0.2602
     15 C13        -3.6991   -0.8437    0.0523 C.2       1 <0>         0.2210
     16 N1         -4.8972   -0.2033    0.0086 N.am      1 <0>        -0.5141
     17 C14        -4.9766    1.1250   -0.1675 C.2       1 <0>         0.6928
     18 O3         -6.0730    1.6491   -0.1992 O.2       1 <0>        -0.4982
     19 N2         -3.8842    1.8947   -0.3095 N.am      1 <0>        -0.6548
     20 H1         -3.9824    2.8516   -0.4349 H         1 <0>         0.4326
     21 C15        -2.6512    1.3469   -0.2732 C.2       1 <0>         0.5714
     22 O4         -1.6588    2.0399   -0.3961 O.2       1 <0>        -0.5080
     23 C16        -6.1302   -0.9806    0.1565 C.3       1 <0>         0.2898
     24 C17        -6.9035   -0.5270    1.4203 C.3       1 <0>        -0.1976
     25 C18        -8.3517   -0.9440    1.0451 C.3       1 <0>         0.0832
     26 C19        -8.3754   -0.7093   -0.4806 C.3       1 <0>         0.0936
     27 O5         -7.0191   -0.7193   -0.9411 O.3       1 <0>        -0.3354
     28 C20        -9.1643   -1.8271   -1.1655 C.3       1 <0>         0.1260
     29 O6         -9.2808   -1.5419   -2.5609 O.3       1 <0>        -0.7483
     30 P1        -10.0518   -2.5085   -3.5921 P.3       1 <0>         2.1275
     31 O7         -9.4528   -3.9533   -3.5010 O.2       1 <0>        -1.1883
     32 O8        -11.5752   -2.5509   -3.2287 O.3       1 <0>        -1.1874
     33 O9         -9.8777   -1.9620   -5.0499 O.3       1 <0>        -1.1665
     34 O10        -9.3076   -0.1099    1.7028 O.3       1 <0>        -0.5416
     35 H2         -1.1589   -1.7661    3.1648 H         1 <0>         0.0837
     36 H3         -1.9630   -0.3045    2.5439 H         1 <0>         0.0800
     37 H4         -2.5888   -1.9147    2.1153 H         1 <0>         0.0793
     38 H5          1.4944   -1.0065   -3.2289 H         1 <0>         0.1446
     39 H6          3.6857   -2.1241   -3.0716 H         1 <0>         0.1369
     40 H7          4.3913   -3.1789   -0.9707 H         1 <0>         0.1355
     41 H8          2.9195   -3.1332    1.0041 H         1 <0>         0.1422
     42 H9         -3.6567   -1.9135    0.1941 H         1 <0>         0.1857
     43 H10        -5.9012   -2.0448    0.2129 H         1 <0>         0.1246
     44 H11        -6.5577   -1.0612    2.3053 H         1 <0>         0.0917
     45 H12        -6.8290    0.5513    1.5605 H         1 <0>         0.1058
     46 H13        -8.5259   -1.9943    1.2788 H         1 <0>         0.0861
     47 H14        -8.8331    0.2554   -0.6993 H         1 <0>         0.1031
     48 H15        -8.6431   -2.7749   -1.0306 H         1 <0>         0.0399
     49 H16       -10.1586   -1.8933   -0.7239 H         1 <0>         0.0518
     50 H17        -9.2715   -0.1557    2.6680 H         1 <0>         0.3748
@<TRIPOS>BOND
     1    1    2 1
     2    1   35 1
     3    1   36 1
     4    1   37 1
     5    2   12 1
     6    2    3 2
     7    3    4 1
     8    3   14 1
     9    4    5 2
    10    4    6 1
    11    6   11 ar
    12    6    7 ar
    13    7    8 ar
    14    7   38 1
    15    8    9 ar
    16    8   39 1
    17    9   10 ar
    18    9   40 1
    19   10   11 ar
    20   10   41 1
    21   11   12 1
    22   12   13 2
    23   14   21 1
    24   14   15 2
    25   15   16 1
    26   15   42 1
    27   16   17 am
    28   16   23 1
    29   17   18 2
    30   17   19 am
    31   19   20 1
    32   19   21 am
    33   21   22 2
    34   23   27 1
    35   23   24 1
    36   23   43 1
    37   24   25 1
    38   24   44 1
    39   24   45 1
    40   25   26 1
    41   25   34 1
    42   25   46 1
    43   26   27 1
    44   26   28 1
    45   26   47 1
    46   28   29 1
    47   28   48 1
    48   28   49 1
    49   29   30 1
    50   30   31 2
    51   30   32 1
    52   30   33 1
    53   34   50 1
@<TRIPOS>MOLECULE
CHEMBL132934__11
   51    54     0     0     0
SMALL
USER_CHARGES

@<TRIPOS>ATOM
      1 C1         -1.6882   -1.3342    2.3154 C.3       1 <0>        -0.1201
      2 C2         -0.7951   -1.3583    1.1019 C.2       1 <0>        -0.1185
      3 C3         -1.2175   -0.7644   -0.0455 C.2       1 <0>        -0.0171
      4 C4         -0.3584   -0.7723   -1.2577 C.2       1 <0>         0.4226
      5 O1         -0.7342   -0.2423   -2.2834 O.2       1 <0>        -0.4009
      6 C5          0.9618   -1.4356   -1.1949 C.ar      1 <0>        -0.1173
      7 C6          1.8009   -1.4686   -2.3022 C.ar      1 <0>        -0.0663
      8 C7          3.0324   -2.0975   -2.2121 C.ar      1 <0>        -0.0977
      9 C8          3.4294   -2.6913   -1.0290 C.ar      1 <0>        -0.1016
     10 C9          2.6027   -2.6664    0.0832 C.ar      1 <0>        -0.0662
     11 C10         1.3652   -2.0392    0.0099 C.ar      1 <0>        -0.1266
     12 C11         0.4673   -1.9940    1.1847 C.2       1 <0>         0.4290
     13 O2          0.8148   -2.5112    2.2299 O.2       1 <0>        -0.4242
     14 C12        -2.5342   -0.1099   -0.0874 C.2       1 <0>        -0.2437
     15 C13        -3.6991   -0.8437    0.0523 C.2       1 <0>         0.2091
     16 N1         -4.8972   -0.2033    0.0086 N.am      1 <0>        -0.5177
     17 C14        -4.9766    1.1250   -0.1675 C.2       1 <0>         0.6956
     18 O3         -6.0730    1.6491   -0.1992 O.2       1 <0>        -0.5053
     19 N2         -3.8842    1.8947   -0.3095 N.am      1 <0>        -0.6548
     20 H1         -3.9824    2.8516   -0.4349 H         1 <0>         0.4341
     21 C15        -2.6512    1.3469   -0.2732 C.2       1 <0>         0.5677
     22 O4         -1.6588    2.0399   -0.3961 O.2       1 <0>        -0.4988
     23 C16        -6.1302   -0.9806    0.1565 C.3       1 <0>         0.2946
     24 C17        -6.9035   -0.5270    1.4203 C.3       1 <0>        -0.1996
     25 C18        -8.3517   -0.9440    1.0451 C.3       1 <0>         0.0846
     26 C19        -8.3754   -0.7093   -0.4806 C.3       1 <0>         0.0921
     27 O5         -7.0191   -0.7193   -0.9411 O.3       1 <0>        -0.3424
     28 C20        -9.1643   -1.8271   -1.1655 C.3       1 <0>         0.1311
     29 O6         -9.2808   -1.5419   -2.5609 O.3       1 <0>        -0.7511
     30 P1        -10.0518   -2.5085   -3.5921 P.3       1 <0>         2.2118
     31 O7         -9.4611   -3.9333   -3.5023 O.2       1 <0>        -1.1087
     32 O8        -11.5541   -2.5503   -3.2337 O.3       1 <0>        -1.1066
     33 O9         -9.8729   -1.9468   -5.0903 O.3       1 <0>        -0.8962
     34 O10        -9.3076   -0.1099    1.7028 O.3       1 <0>        -0.5431
     35 H2         -1.1589   -1.7661    3.1648 H         1 <0>         0.0862
     36 H3         -1.9630   -0.3045    2.5439 H         1 <0>         0.0808
     37 H4         -2.5888   -1.9147    2.1153 H         1 <0>         0.0791
     38 H5          1.4944   -1.0065   -3.2289 H         1 <0>         0.1442
     39 H6          3.6857   -2.1241   -3.0716 H         1 <0>         0.1382
     40 H7          4.3913   -3.1789   -0.9707 H         1 <0>         0.1373
     41 H8          2.9195   -3.1332    1.0041 H         1 <0>         0.1434
     42 H9         -3.6567   -1.9135    0.1941 H         1 <0>         0.1862
     43 H10        -5.9012   -2.0448    0.2129 H         1 <0>         0.1264
     44 H11        -6.5577   -1.0612    2.3053 H         1 <0>         0.0973
     45 H12        -6.8290    0.5513    1.5605 H         1 <0>         0.1094
     46 H13        -8.5259   -1.9943    1.2788 H         1 <0>         0.0878
     47 H14        -8.8331    0.2554   -0.6993 H         1 <0>         0.1085
     48 H15        -8.6431   -2.7749   -1.0306 H         1 <0>         0.0594
     49 H16       -10.1586   -1.8933   -0.7239 H         1 <0>         0.0714
     50 H17       -10.3126   -2.4811   -5.7657 H         1 <0>         0.4143
     51 H18        -9.2715   -0.1557    2.6680 H         1 <0>         0.3826
@<TRIPOS>BOND
     1    1    2 1
     2    1   35 1
     3    1   36 1
     4    1   37 1
     5    2   12 1
     6    2    3 2
     7    3    4 1
     8    3   14 1
     9    4    5 2
    10    4    6 1
    11    6   11 ar
    12    6    7 ar
    13    7    8 ar
    14    7   38 1
    15    8    9 ar
    16    8   39 1
    17    9   10 ar
    18    9   40 1
    19   10   11 ar
    20   10   41 1
    21   11   12 1
    22   12   13 2
    23   14   21 1
    24   14   15 2
    25   15   16 1
    26   15   42 1
    27   16   17 am
    28   16   23 1
    29   17   18 2
    30   17   19 am
    31   19   20 1
    32   19   21 am
    33   21   22 2
    34   23   27 1
    35   23   24 1
    36   23   43 1
    37   24   25 1
    38   24   44 1
    39   24   45 1
    40   25   26 1
    41   25   34 1
    42   25   46 1
    43   26   27 1
    44   26   28 1
    45   26   47 1
    46   28   29 1
    47   28   48 1
    48   28   49 1
    49   29   30 1
    50   30   31 2
    51   30   32 1
    52   30   33 1
    53   33   50 1
    54   34   51 1
@<TRIPOS>MOLECULE
CHEMBL132934__12
   50    53     0     0     0
SMALL
USER_CHARGES

@<TRIPOS>ATOM
      1 C1         -1.6882   -1.3342    2.3154 C.3       1 <0>        -0.1178
      2 C2         -0.7951   -1.3583    1.1019 C.2       1 <0>        -0.1291
      3 C3         -1.2175   -0.7644   -0.0455 C.2       1 <0>        -0.0043
      4 C4         -0.3584   -0.7723   -1.2577 C.2       1 <0>         0.4180
      5 O1         -0.7342   -0.2423   -2.2834 O.2       1 <0>        -0.3942
      6 C5          0.9618   -1.4356   -1.1949 C.ar      1 <0>        -0.1137
      7 C6          1.8009   -1.4686   -2.3022 C.ar      1 <0>        -0.0671
      8 C7          3.0324   -2.0975   -2.2121 C.ar      1 <0>        -0.0986
      9 C8          3.4294   -2.6913   -1.0290 C.ar      1 <0>        -0.1045
     10 C9          2.6027   -2.6664    0.0832 C.ar      1 <0>        -0.0678
     11 C10         1.3652   -2.0392    0.0099 C.ar      1 <0>        -0.1260
     12 C11         0.4673   -1.9940    1.1847 C.2       1 <0>         0.4317
     13 O2          0.8148   -2.5112    2.2299 O.2       1 <0>        -0.4298
     14 C12        -2.5342   -0.1099   -0.0874 C.2       1 <0>        -0.2593
     15 C13        -3.6991   -0.8437    0.0523 C.2       1 <0>         0.2192
     16 N1         -4.8972   -0.2033    0.0086 N.am      1 <0>        -0.5134
     17 C14        -4.9766    1.1250   -0.1675 C.2       1 <0>         0.6901
     18 O3         -6.0730    1.6491   -0.1992 O.2       1 <0>        -0.4885
     19 N2         -3.8842    1.8947   -0.3095 N.am      1 <0>        -0.6540
     20 H1         -3.9824    2.8516   -0.4349 H         1 <0>         0.4344
     21 C15        -2.6512    1.3469   -0.2732 C.2       1 <0>         0.5712
     22 O4         -1.6588    2.0399   -0.3961 O.2       1 <0>        -0.5074
     23 C16        -6.1302   -0.9806    0.1565 C.3       1 <0>         0.2873
     24 C17        -6.9065   -0.5239    1.4115 C.3       1 <0>        -0.1891
     25 C18        -8.3897   -0.6081    0.9868 C.3       1 <0>         0.0807
     26 C19        -8.3340   -1.1058   -0.4746 C.3       1 <0>         0.0914
     27 O5         -7.0250   -0.7189   -0.9465 O.3       1 <0>        -0.3312
     28 C20        -9.4227   -0.4289   -1.3096 C.3       1 <0>         0.1399
     29 O6         -9.4298   -0.9866   -2.6252 O.3       1 <0>        -0.7517
     30 P1        -10.4510   -0.5090   -3.7747 P.3       1 <0>         2.1276
     31 O7        -11.9222   -0.6338   -3.2510 O.2       1 <0>        -1.1884
     32 O8        -10.1548    0.9832   -4.1492 O.3       1 <0>        -1.1856
     33 O9        -10.2695   -1.4114   -5.0424 O.3       1 <0>        -1.1669
     34 O10        -9.0933   -1.5427    1.8075 O.3       1 <0>        -0.5506
     35 H2         -1.1589   -1.7661    3.1648 H         1 <0>         0.0836
     36 H3         -1.9630   -0.3045    2.5439 H         1 <0>         0.0805
     37 H4         -2.5888   -1.9147    2.1153 H         1 <0>         0.0786
     38 H5          1.4944   -1.0065   -3.2289 H         1 <0>         0.1448
     39 H6          3.6857   -2.1241   -3.0716 H         1 <0>         0.1370
     40 H7          4.3913   -3.1789   -0.9707 H         1 <0>         0.1355
     41 H8          2.9195   -3.1332    1.0041 H         1 <0>         0.1421
     42 H9         -3.6567   -1.9135    0.1941 H         1 <0>         0.1840
     43 H10        -5.9021   -2.0448    0.2158 H         1 <0>         0.1179
     44 H11        -6.7099   -1.1951    2.2475 H         1 <0>         0.0931
     45 H12        -6.6416    0.5007    1.6727 H         1 <0>         0.0937
     46 H13        -8.8580    0.3748    1.0380 H         1 <0>         0.0862
     47 H14        -8.4454   -2.1894   -0.5109 H         1 <0>         0.0915
     48 H15       -10.3934   -0.5909   -0.8410 H         1 <0>         0.0582
     49 H16        -9.2223    0.6409   -1.3696 H         1 <0>         0.0463
     50 H17        -9.1069   -1.3097    2.7459 H         1 <0>         0.3747
@<TRIPOS>BOND
     1    1    2 1
     2    1   35 1
     3    1   36 1
     4    1   37 1
     5    2   12 1
     6    2    3 2
     7    3    4 1
     8    3   14 1
     9    4    5 2
    10    4    6 1
    11    6   11 ar
    12    6    7 ar
    13    7    8 ar
    14    7   38 1
    15    8    9 ar
    16    8   39 1
    17    9   10 ar
    18    9   40 1
    19   10   11 ar
    20   10   41 1
    21   11   12 1
    22   12   13 2
    23   14   21 1
    24   14   15 2
    25   15   16 1
    26   15   42 1
    27   16   17 am
    28   16   23 1
    29   17   18 2
    30   17   19 am
    31   19   20 1
    32   19   21 am
    33   21   22 2
    34   23   27 1
    35   23   24 1
    36   23   43 1
    37   24   25 1
    38   24   44 1
    39   24   45 1
    40   25   26 1
    41   25   34 1
    42   25   46 1
    43   26   27 1
    44   26   28 1
    45   26   47 1
    46   28   29 1
    47   28   48 1
    48   28   49 1
    49   29   30 1
    50   30   31 2
    51   30   32 1
    52   30   33 1
    53   34   50 1
@<TRIPOS>MOLECULE
CHEMBL132934__13
   51    54     0     0     0
SMALL
USER_CHARGES

@<TRIPOS>ATOM
      1 C1         -1.6882   -1.3342    2.3154 C.3       1 <0>        -0.1200
      2 C2         -0.7951   -1.3583    1.1019 C.2       1 <0>        -0.1191
      3 C3         -1.2175   -0.7644   -0.0455 C.2       1 <0>        -0.0166
      4 C4         -0.3584   -0.7723   -1.2577 C.2       1 <0>         0.4219
      5 O1         -0.7342   -0.2423   -2.2834 O.2       1 <0>        -0.3998
      6 C5          0.9618   -1.4356   -1.1949 C.ar      1 <0>        -0.1171
      7 C6          1.8009   -1.4686   -2.3022 C.ar      1 <0>        -0.0664
      8 C7          3.0324   -2.0975   -2.2121 C.ar      1 <0>        -0.0977
      9 C8          3.4294   -2.6913   -1.0290 C.ar      1 <0>        -0.1017
     10 C9          2.6027   -2.6664    0.0832 C.ar      1 <0>        -0.0663
     11 C10         1.3652   -2.0392    0.0099 C.ar      1 <0>        -0.1268
     12 C11         0.4673   -1.9940    1.1847 C.2       1 <0>         0.4291
     13 O2          0.8148   -2.5112    2.2299 O.2       1 <0>        -0.4245
     14 C12        -2.5342   -0.1099   -0.0874 C.2       1 <0>        -0.2428
     15 C13        -3.6991   -0.8437    0.0523 C.2       1 <0>         0.2079
     16 N1         -4.8972   -0.2033    0.0086 N.am      1 <0>        -0.5169
     17 C14        -4.9766    1.1250   -0.1675 C.2       1 <0>         0.6941
     18 O3         -6.0730    1.6491   -0.1992 O.2       1 <0>        -0.4989
     19 N2         -3.8842    1.8947   -0.3095 N.am      1 <0>        -0.6541
     20 H1         -3.9824    2.8516   -0.4349 H         1 <0>         0.4355
     21 C15        -2.6512    1.3469   -0.2732 C.2       1 <0>         0.5676
     22 O4         -1.6588    2.0399   -0.3961 O.2       1 <0>        -0.4982
     23 C16        -6.1302   -0.9806    0.1565 C.3       1 <0>         0.2938
     24 C17        -6.9065   -0.5239    1.4115 C.3       1 <0>        -0.1915
     25 C18        -8.3897   -0.6081    0.9868 C.3       1 <0>         0.0823
     26 C19        -8.3340   -1.1058   -0.4746 C.3       1 <0>         0.0893
     27 O5         -7.0250   -0.7189   -0.9465 O.3       1 <0>        -0.3384
     28 C20        -9.4227   -0.4289   -1.3096 C.3       1 <0>         0.1457
     29 O6         -9.4298   -0.9866   -2.6252 O.3       1 <0>        -0.7546
     30 P1        -10.4510   -0.5090   -3.7747 P.3       1 <0>         2.2110
     31 O7        -11.9019   -0.6321   -3.2582 O.2       1 <0>        -1.1080
     32 O8        -10.1589    0.9625   -4.1440 O.3       1 <0>        -1.1043
     33 O9        -10.2645   -1.4364   -5.0774 O.3       1 <0>        -0.8969
     34 O10        -9.0933   -1.5427    1.8075 O.3       1 <0>        -0.5526
     35 H2         -1.1589   -1.7661    3.1648 H         1 <0>         0.0861
     36 H3         -1.9630   -0.3045    2.5439 H         1 <0>         0.0813
     37 H4         -2.5888   -1.9147    2.1153 H         1 <0>         0.0786
     38 H5          1.4944   -1.0065   -3.2289 H         1 <0>         0.1444
     39 H6          3.6857   -2.1241   -3.0716 H         1 <0>         0.1382
     40 H7          4.3913   -3.1789   -0.9707 H         1 <0>         0.1373
     41 H8          2.9195   -3.1332    1.0041 H         1 <0>         0.1434
     42 H9         -3.6567   -1.9135    0.1941 H         1 <0>         0.1848
     43 H10        -5.9021   -2.0448    0.2158 H         1 <0>         0.1206
     44 H11        -6.7099   -1.1951    2.2475 H         1 <0>         0.0979
     45 H12        -6.6416    0.5007    1.6727 H         1 <0>         0.0978
     46 H13        -8.8580    0.3748    1.0380 H         1 <0>         0.0881
     47 H14        -8.4454   -2.1894   -0.5109 H         1 <0>         0.0963
     48 H15       -10.3934   -0.5909   -0.8410 H         1 <0>         0.0768
     49 H16        -9.2223    0.6409   -1.3696 H         1 <0>         0.0663
     50 H17       -10.8494   -1.2051   -5.8119 H         1 <0>         0.4146
     51 H18        -9.1069   -1.3097    2.7459 H         1 <0>         0.3825
@<TRIPOS>BOND
     1    1    2 1
     2    1   35 1
     3    1   36 1
     4    1   37 1
     5    2   12 1
     6    2    3 2
     7    3    4 1
     8    3   14 1
     9    4    5 2
    10    4    6 1
    11    6   11 ar
    12    6    7 ar
    13    7    8 ar
    14    7   38 1
    15    8    9 ar
    16    8   39 1
    17    9   10 ar
    18    9   40 1
    19   10   11 ar
    20   10   41 1
    21   11   12 1
    22   12   13 2
    23   14   21 1
    24   14   15 2
    25   15   16 1
    26   15   42 1
    27   16   17 am
    28   16   23 1
    29   17   18 2
    30   17   19 am
    31   19   20 1
    32   19   21 am
    33   21   22 2
    34   23   27 1
    35   23   24 1
    36   23   43 1
    37   24   25 1
    38   24   44 1
    39   24   45 1
    40   25   26 1
    41   25   34 1
    42   25   46 1
    43   26   27 1
    44   26   28 1
    45   26   47 1
    46   28   29 1
    47   28   48 1
    48   28   49 1
    49   29   30 1
    50   30   31 2
    51   30   32 1
    52   30   33 1
    53   33   50 1
    54   34   51 1
@<TRIPOS>MOLECULE
CHEMBL132934__14
   50    53     0     0     0
SMALL
USER_CHARGES

@<TRIPOS>ATOM
      1 C1         -1.6882   -1.3342    2.3154 C.3       1 <0>        -0.1179
      2 C2         -0.7951   -1.3583    1.1019 C.2       1 <0>        -0.1283
      3 C3         -1.2175   -0.7644   -0.0455 C.2       1 <0>        -0.0051
      4 C4         -0.3584   -0.7723   -1.2577 C.2       1 <0>         0.4189
      5 O1         -0.7342   -0.2423   -2.2834 O.2       1 <0>        -0.3956
      6 C5          0.9618   -1.4356   -1.1949 C.ar      1 <0>        -0.1138
      7 C6          1.8009   -1.4686   -2.3022 C.ar      1 <0>        -0.0670
      8 C7          3.0324   -2.0975   -2.2121 C.ar      1 <0>        -0.0987
      9 C8          3.4294   -2.6913   -1.0290 C.ar      1 <0>        -0.1044
     10 C9          2.6027   -2.6664    0.0832 C.ar      1 <0>        -0.0677
     11 C10         1.3652   -2.0392    0.0099 C.ar      1 <0>        -0.1257
     12 C11         0.4673   -1.9940    1.1847 C.2       1 <0>         0.4317
     13 O2          0.8148   -2.5112    2.2299 O.2       1 <0>        -0.4296
     14 C12        -2.5342   -0.1099   -0.0874 C.2       1 <0>        -0.2612
     15 C13        -3.6991   -0.8437    0.0523 C.2       1 <0>         0.2223
     16 N1         -4.8972   -0.2033    0.0086 N.am      1 <0>        -0.5146
     17 C14        -4.9766    1.1250   -0.1675 C.2       1 <0>         0.6945
     18 O3         -6.0730    1.6491   -0.1992 O.2       1 <0>        -0.5035
     19 N2         -3.8842    1.8947   -0.3095 N.am      1 <0>        -0.6549
     20 H1         -3.9824    2.8516   -0.4349 H         1 <0>         0.4323
     21 C15        -2.6512    1.3469   -0.2732 C.2       1 <0>         0.5715
     22 O4         -1.6588    2.0399   -0.3961 O.2       1 <0>        -0.5081
     23 C16        -6.1302   -0.9806    0.1565 C.3       1 <0>         0.2931
     24 C17        -6.9035   -0.5270    1.4203 C.3       1 <0>        -0.1938
     25 C18        -8.3517   -0.9440    1.0451 C.3       1 <0>         0.0810
     26 C19        -8.3754   -0.7093   -0.4806 C.3       1 <0>         0.0956
     27 O5         -7.0191   -0.7193   -0.9411 O.3       1 <0>        -0.3393
     28 C20        -9.1643   -1.8271   -1.1655 C.3       1 <0>         0.1341
     29 O6         -9.2808   -1.5419   -2.5609 O.3       1 <0>        -0.7549
     30 P1        -10.0518   -2.5085   -3.5921 P.3       1 <0>         2.1311
     31 O7         -9.4528   -3.9533   -3.5010 O.2       1 <0>        -1.1893
     32 O8        -11.5752   -2.5509   -3.2287 O.3       1 <0>        -1.1898
     33 O9         -9.8777   -1.9620   -5.0499 O.3       1 <0>        -1.1693
     34 O10        -8.5801   -2.3209    1.3515 O.3       1 <0>        -0.5391
     35 H2         -1.1589   -1.7661    3.1648 H         1 <0>         0.0837
     36 H3         -1.9630   -0.3045    2.5439 H         1 <0>         0.0798
     37 H4         -2.5888   -1.9147    2.1153 H         1 <0>         0.0794
     38 H5          1.4944   -1.0065   -3.2289 H         1 <0>         0.1446
     39 H6          3.6857   -2.1241   -3.0716 H         1 <0>         0.1369
     40 H7          4.3913   -3.1789   -0.9707 H         1 <0>         0.1355
     41 H8          2.9195   -3.1332    1.0041 H         1 <0>         0.1422
     42 H9         -3.6567   -1.9135    0.1941 H         1 <0>         0.1854
     43 H10        -5.9012   -2.0448    0.2129 H         1 <0>         0.1245
     44 H11        -6.5577   -1.0612    2.3053 H         1 <0>         0.0926
     45 H12        -6.8290    0.5513    1.5605 H         1 <0>         0.1035
     46 H13        -9.0809   -0.3077    1.5467 H         1 <0>         0.0870
     47 H14        -8.8331    0.2554   -0.6993 H         1 <0>         0.1023
     48 H15        -8.6431   -2.7749   -1.0306 H         1 <0>         0.0486
     49 H16       -10.1586   -1.8933   -0.7239 H         1 <0>         0.0479
     50 H17        -8.4885   -2.5355    2.2899 H         1 <0>         0.3717
@<TRIPOS>BOND
     1    1    2 1
     2    1   35 1
     3    1   36 1
     4    1   37 1
     5    2   12 1
     6    2    3 2
     7    3    4 1
     8    3   14 1
     9    4    5 2
    10    4    6 1
    11    6   11 ar
    12    6    7 ar
    13    7    8 ar
    14    7   38 1
    15    8    9 ar
    16    8   39 1
    17    9   10 ar
    18    9   40 1
    19   10   11 ar
    20   10   41 1
    21   11   12 1
    22   12   13 2
    23   14   21 1
    24   14   15 2
    25   15   16 1
    26   15   42 1
    27   16   17 am
    28   16   23 1
    29   17   18 2
    30   17   19 am
    31   19   20 1
    32   19   21 am
    33   21   22 2
    34   23   27 1
    35   23   24 1
    36   23   43 1
    37   24   25 1
    38   24   44 1
    39   24   45 1
    40   25   26 1
    41   25   34 1
    42   25   46 1
    43   26   27 1
    44   26   28 1
    45   26   47 1
    46   28   29 1
    47   28   48 1
    48   28   49 1
    49   29   30 1
    50   30   31 2
    51   30   32 1
    52   30   33 1
    53   34   50 1
@<TRIPOS>MOLECULE
CHEMBL132934__15
   51    54     0     0     0
SMALL
USER_CHARGES

@<TRIPOS>ATOM
      1 C1         -1.6882   -1.3342    2.3154 C.3       1 <0>        -0.1200
      2 C2         -0.7951   -1.3583    1.1019 C.2       1 <0>        -0.1186
      3 C3         -1.2175   -0.7644   -0.0455 C.2       1 <0>        -0.0170
      4 C4         -0.3584   -0.7723   -1.2577 C.2       1 <0>         0.4226
      5 O1         -0.7342   -0.2423   -2.2834 O.2       1 <0>        -0.4010
      6 C5          0.9618   -1.4356   -1.1949 C.ar      1 <0>        -0.1172
      7 C6          1.8009   -1.4686   -2.3022 C.ar      1 <0>        -0.0663
      8 C7          3.0324   -2.0975   -2.2121 C.ar      1 <0>        -0.0978
      9 C8          3.4294   -2.6913   -1.0290 C.ar      1 <0>        -0.1016
     10 C9          2.6027   -2.6664    0.0832 C.ar      1 <0>        -0.0662
     11 C10         1.3652   -2.0392    0.0099 C.ar      1 <0>        -0.1265
     12 C11         0.4673   -1.9940    1.1847 C.2       1 <0>         0.4291
     13 O2          0.8148   -2.5112    2.2299 O.2       1 <0>        -0.4243
     14 C12        -2.5342   -0.1099   -0.0874 C.2       1 <0>        -0.2448
     15 C13        -3.6991   -0.8437    0.0523 C.2       1 <0>         0.2104
     16 N1         -4.8972   -0.2033    0.0086 N.am      1 <0>        -0.5182
     17 C14        -4.9766    1.1250   -0.1675 C.2       1 <0>         0.6973
     18 O3         -6.0730    1.6491   -0.1992 O.2       1 <0>        -0.5106
     19 N2         -3.8842    1.8947   -0.3095 N.am      1 <0>        -0.6549
     20 H1         -3.9824    2.8516   -0.4349 H         1 <0>         0.4338
     21 C15        -2.6512    1.3469   -0.2732 C.2       1 <0>         0.5678
     22 O4         -1.6588    2.0399   -0.3961 O.2       1 <0>        -0.4989
     23 C16        -6.1302   -0.9806    0.1565 C.3       1 <0>         0.2980
     24 C17        -6.9035   -0.5270    1.4203 C.3       1 <0>        -0.1956
     25 C18        -8.3517   -0.9440    1.0451 C.3       1 <0>         0.0816
     26 C19        -8.3754   -0.7093   -0.4806 C.3       1 <0>         0.0961
     27 O5         -7.0191   -0.7193   -0.9411 O.3       1 <0>        -0.3465
     28 C20        -9.1643   -1.8271   -1.1655 C.3       1 <0>         0.1381
     29 O6         -9.2808   -1.5419   -2.5609 O.3       1 <0>        -0.7569
     30 P1        -10.0518   -2.5085   -3.5921 P.3       1 <0>         2.2128
     31 O7         -9.4611   -3.9333   -3.5023 O.2       1 <0>        -1.1090
     32 O8        -11.5541   -2.5503   -3.2337 O.3       1 <0>        -1.1083
     33 O9         -9.8729   -1.9468   -5.0903 O.3       1 <0>        -0.8972
     34 O10        -8.5801   -2.3209    1.3515 O.3       1 <0>        -0.5464
     35 H2         -1.1589   -1.7661    3.1648 H         1 <0>         0.0861
     36 H3         -1.9630   -0.3045    2.5439 H         1 <0>         0.0806
     37 H4         -2.5888   -1.9147    2.1153 H         1 <0>         0.0792
     38 H5          1.4944   -1.0065   -3.2289 H         1 <0>         0.1442
     39 H6          3.6857   -2.1241   -3.0716 H         1 <0>         0.1381
     40 H7          4.3913   -3.1789   -0.9707 H         1 <0>         0.1373
     41 H8          2.9195   -3.1332    1.0041 H         1 <0>         0.1434
     42 H9         -3.6567   -1.9135    0.1941 H         1 <0>         0.1859
     43 H10        -5.9012   -2.0448    0.2129 H         1 <0>         0.1263
     44 H11        -6.5577   -1.0612    2.3053 H         1 <0>         0.0979
     45 H12        -6.8290    0.5513    1.5605 H         1 <0>         0.1071
     46 H13        -9.0809   -0.3077    1.5467 H         1 <0>         0.0922
     47 H14        -8.8331    0.2554   -0.6993 H         1 <0>         0.1073
     48 H15        -8.6431   -2.7749   -1.0306 H         1 <0>         0.0676
     49 H16       -10.1586   -1.8933   -0.7239 H         1 <0>         0.0680
     50 H17       -10.3126   -2.4811   -5.7657 H         1 <0>         0.4138
     51 H18        -8.4885   -2.5355    2.2899 H         1 <0>         0.3811
@<TRIPOS>BOND
     1    1    2 1
     2    1   35 1
     3    1   36 1
     4    1   37 1
     5    2   12 1
     6    2    3 2
     7    3    4 1
     8    3   14 1
     9    4    5 2
    10    4    6 1
    11    6   11 ar
    12    6    7 ar
    13    7    8 ar
    14    7   38 1
    15    8    9 ar
    16    8   39 1
    17    9   10 ar
    18    9   40 1
    19   10   11 ar
    20   10   41 1
    21   11   12 1
    22   12   13 2
    23   14   21 1
    24   14   15 2
    25   15   16 1
    26   15   42 1
    27   16   17 am
    28   16   23 1
    29   17   18 2
    30   17   19 am
    31   19   20 1
    32   19   21 am
    33   21   22 2
    34   23   27 1
    35   23   24 1
    36   23   43 1
    37   24   25 1
    38   24   44 1
    39   24   45 1
    40   25   26 1
    41   25   34 1
    42   25   46 1
    43   26   27 1
    44   26   28 1
    45   26   47 1
    46   28   29 1
    47   28   48 1
    48   28   49 1
    49   29   30 1
    50   30   31 2
    51   30   32 1
    52   30   33 1
    53   33   50 1
    54   34   51 1
@<TRIPOS>MOLECULE
CHEMBL355323
   58    61     0     0     0
SMALL
USER_CHARGES

@<TRIPOS>ATOM
      1 C1         -0.0184    1.5028    0.0103 C.3       1 <0>        -0.1121
      2 C2          0.0021   -0.0041    0.0020 C.2       1 <0>         0.3968
      3 N1          0.0048   -0.6148   -1.1450 N.2       1 <0>        -0.5252
      4 C3          0.0227   -1.9611   -1.2330 C.ar      1 <0>         0.1853
      5 C4          0.0260   -2.6149   -2.4783 C.ar      1 <0>        -0.1167
      6 C5          0.0444   -3.9657   -2.5660 C.ar      1 <0>        -0.0517
      7 C6          0.0606   -4.7762   -1.4121 C.ar      1 <0>        -0.0677
      8 C7          0.0797   -6.1761   -1.5078 C.ar      1 <0>        -0.1005
      9 C8          0.0954   -6.9314   -0.3736 C.ar      1 <0>        -0.0993
     10 C9          0.0929   -6.3351    0.8837 C.ar      1 <0>        -0.0855
     11 C10         0.0745   -4.9773    1.0131 C.ar      1 <0>        -0.0931
     12 C11         0.0581   -4.1723   -0.1305 C.ar      1 <0>         0.0044
     13 C12         0.0387   -2.7179   -0.0472 C.ar      1 <0>        -0.2002
     14 C13         0.0353   -2.0080    1.2317 C.2       1 <0>         0.5435
     15 N2          0.0222   -0.6546    1.1925 N.am      1 <0>        -0.6436
     16 O1          0.0487   -2.6106    2.2903 O.2       1 <0>        -0.5033
     17 C14         0.1100   -7.2001    2.1176 C.3       1 <0>         0.1609
     18 N3          1.4967   -7.4617    2.5113 N.pl3     1 <0>        -0.7365
     19 C15         1.7663   -8.2429    3.6296 C.ar      1 <0>         0.2546
     20 C16         0.7166   -8.7807    4.3707 C.ar      1 <0>        -0.2131
     21 C17         0.9729   -9.5488    5.4699 C.ar      1 <0>        -0.0077
     22 C18         2.2931   -9.8000    5.8572 C.ar      1 <0>        -0.2058
     23 C19         3.3512   -9.2613    5.1142 C.ar      1 <0>         0.2019
     24 C20         3.0834   -8.4900    4.0016 C.ar      1 <0>        -0.2478
     25 F1          4.6290   -9.4999    5.4826 F         1 <0>        -0.1154
     26 C21         2.5701  -10.6286    7.0440 C.2       1 <0>         0.5494
     27 O2          3.7187  -10.8460    7.3792 O.2       1 <0>        -0.5474
     28 N4          1.5504  -11.1456    7.7578 N.am      1 <0>        -0.6782
     29 C22         1.8258  -11.9694    8.9375 C.3       1 <0>         0.0751
     30 H1          2.7132  -11.5917    9.4453 H         1 <0>         0.0773
     31 C23         0.6299  -11.9119    9.8901 C.3       1 <0>        -0.0818
     32 C24         0.4687  -10.4860   10.4208 C.3       1 <0>        -0.1772
     33 C25        -0.7092  -10.4293   11.3591 C.2       1 <0>         0.4912
     34 O3         -1.3595  -11.4361   11.5826 O.co2     1 <0>        -0.6980
     35 O4         -1.0119   -9.3767   11.8946 O.co2     1 <0>        -0.7201
     36 C26         2.0599  -13.3956    8.5108 C.2       1 <0>         0.4986
     37 O5          2.8026  -14.1121    9.1601 O.co2     1 <0>        -0.7021
     38 O6          1.5067  -13.8330    7.5162 O.co2     1 <0>        -0.6993
     39 H2          1.0042    1.8801    0.0026 H         1 <0>         0.0997
     40 H3         -0.5455    1.8639   -0.8728 H         1 <0>         0.1045
     41 H4         -0.5286    1.8543    0.9071 H         1 <0>         0.0879
     42 H5          0.0132   -2.0267   -3.3839 H         1 <0>         0.1396
     43 H6          0.0464   -4.4323   -3.5400 H         1 <0>         0.1379
     44 H7          0.0816   -6.6531   -2.4767 H         1 <0>         0.1330
     45 H8          0.1097   -8.0085   -0.4517 H         1 <0>         0.1308
     46 H9          0.0724   -4.5259    1.9943 H         1 <0>         0.1582
     47 H10        -0.4072   -6.6870    2.9282 H         1 <0>         0.0757
     48 H11        -0.3919   -8.1443    1.9064 H         1 <0>         0.0759
     49 H12         2.2267   -7.0898    1.9920 H         1 <0>         0.4001
     50 H13        -0.3042   -8.5889    4.0747 H         1 <0>         0.1296
     51 H14         0.1552   -9.9627    6.0413 H         1 <0>         0.1382
     52 H15         3.8956   -8.0756    3.4228 H         1 <0>         0.1325
     53 H16         0.6343  -10.9723    7.4904 H         1 <0>         0.3897
     54 H17        -0.2741  -12.2054    9.3565 H         1 <0>         0.0599
     55 H18         0.7967  -12.5933   10.7243 H         1 <0>         0.0719
     56 H19         1.3727  -10.1925   10.9544 H         1 <0>         0.0526
     57 H20         0.3018   -9.8045    9.5866 H         1 <0>         0.0515
     58 H21         0.0232   -0.1477    2.0195 H         1 <0>         0.4209
@<TRIPOS>BOND
     1    1    2 1
     2    1   39 1
     3    1   40 1
     4    1   41 1
     5    2   15 1
     6    2    3 2
     7    3    4 1
     8    4   13 ar
     9    4    5 ar
    10    5    6 ar
    11    5   42 1
    12    6    7 ar
    13    6   43 1
    14    7   12 ar
    15    7    8 ar
    16    8    9 ar
    17    8   44 1
    18    9   10 ar
    19    9   45 1
    20   10   11 ar
    21   10   17 1
    22   11   12 ar
    23   11   46 1
    24   12   13 ar
    25   13   14 1
    26   14   15 am
    27   14   16 2
    28   15   58 1
    29   17   18 1
    30   17   47 1
    31   17   48 1
    32   18   19 1
    33   18   49 1
    34   19   24 ar
    35   19   20 ar
    36   20   21 ar
    37   20   50 1
    38   21   22 ar
    39   21   51 1
    40   22   23 ar
    41   22   26 1
    42   23   24 ar
    43   23   25 1
    44   24   52 1
    45   26   27 2
    46   26   28 am
    47   28   29 1
    48   28   53 1
    49   29   30 1
    50   29   31 1
    51   29   36 1
    52   31   32 1
    53   31   54 1
    54   31   55 1
    55   32   33 1
    56   32   56 1
    57   32   57 1
    58   33   34 2
    59   33   35 1
    60   36   37 2
    61   36   38 1
@<TRIPOS>MOLECULE
CHEMBL124256
   65    68     0     0     0
SMALL
USER_CHARGES

@<TRIPOS>ATOM
      1 C1          0.4859    1.4945   -0.0754 C.3       1 <0>        -0.1160
      2 C2          0.4140   -0.0108   -0.0679 C.ar      1 <0>         0.2784
      3 C3          0.0912   -0.7139   -1.2277 C.ar      1 <0>        -0.2515
      4 C4         -0.2342   -0.3446   -2.6061 C.2       1 <0>        -0.1115
      5 C5         -0.4560   -1.4880   -3.2727 C.2       1 <0>         0.0334
      6 N1         -0.2980   -2.5585   -2.4292 N.pl3     1 <0>        -0.4608
      7 C6          0.0355   -2.1227   -1.1761 C.ar      1 <0>         0.3713
      8 N2          0.2933   -2.7275   -0.0206 N.ar      1 <0>        -0.5955
      9 C7          0.5949   -2.0190    1.0542 C.ar      1 <0>         0.5888
     10 N3          0.6610   -0.6929    1.0374 N.ar      1 <0>        -0.5839
     11 N4          0.8574   -2.6850    2.2403 N.pl3     1 <0>        -0.8262
     12 C8         -0.4630   -3.9624   -2.8140 C.3       1 <0>         0.1548
     13 C9         -1.8642   -4.4112   -2.4883 C.ar      1 <0>        -0.1155
     14 C10        -2.1459   -4.9527   -1.2480 C.ar      1 <0>        -0.0898
     15 C11        -3.4312   -5.3644   -0.9492 C.ar      1 <0>        -0.1250
     16 C12        -4.4351   -5.2340   -1.8906 C.ar      1 <0>        -0.1123
     17 C13        -4.1537   -4.6916   -3.1305 C.ar      1 <0>        -0.1238
     18 C14        -2.8692   -4.2760   -3.4278 C.ar      1 <0>        -0.0987
     19 C15        -0.3069    1.0516   -3.1686 C.3       1 <0>        -0.0470
     20 C16         1.1048    1.5452   -3.4919 C.3       1 <0>        -0.0701
     21 C17         1.0321    2.9414   -4.0544 C.ar      1 <0>        -0.0767
     22 C18         0.8974    3.1281   -5.4187 C.ar      1 <0>        -0.1280
     23 C19         0.8303    4.4036   -5.9402 C.ar      1 <0>        -0.0642
     24 C20         0.8987    5.5070   -5.0881 C.ar      1 <0>        -0.1110
     25 C21         1.0346    5.3116   -3.7128 C.ar      1 <0>        -0.0820
     26 C22         1.0948    4.0308   -3.2038 C.ar      1 <0>        -0.1236
     27 C23         0.8279    6.8767   -5.6401 C.2       1 <0>         0.5428
     28 O1          0.7099    7.0438   -6.8382 O.2       1 <0>        -0.5538
     29 N5          0.8942    7.9401   -4.8147 N.am      1 <0>        -0.6751
     30 C24         0.8241    9.2974   -5.3616 C.3       1 <0>         0.0735
     31 H1          0.1490    9.3099   -6.2172 H         1 <0>         0.0778
     32 C25         0.3033   10.2540   -4.2870 C.3       1 <0>        -0.0824
     33 C26        -1.1386    9.8857   -3.9318 C.3       1 <0>        -0.1770
     34 C27        -1.6515   10.8279   -2.8734 C.2       1 <0>         0.4910
     35 O2         -0.9306   11.7120   -2.4430 O.co2     1 <0>        -0.6976
     36 O3         -2.7874   10.7061   -2.4475 O.co2     1 <0>        -0.7195
     37 C28         2.1983    9.7341   -5.7996 C.2       1 <0>         0.4983
     38 O4          2.3228   10.5172   -6.7257 O.co2     1 <0>        -0.7011
     39 O5          3.1857    9.3043   -5.2278 O.co2     1 <0>        -0.6987
     40 H2          1.4683    1.8095   -0.4269 H         1 <0>         0.0910
     41 H3         -0.2821    1.8916   -0.7393 H         1 <0>         0.0898
     42 H4          0.3233    1.8710    0.9345 H         1 <0>         0.0830
     43 H5         -0.7200   -1.5555   -4.3177 H         1 <0>         0.1743
     44 H6          0.8180   -3.6537    2.2715 H         1 <0>         0.4094
     45 H7          1.0805   -2.1827    3.0395 H         1 <0>         0.4139
     46 H8         -0.2869   -4.0689   -3.8844 H         1 <0>         0.0994
     47 H9          0.2517   -4.5759   -2.2654 H         1 <0>         0.0965
     48 H10        -1.3616   -5.0546   -0.5125 H         1 <0>         0.1268
     49 H11        -3.6511   -5.7882    0.0195 H         1 <0>         0.1214
     50 H12        -5.4392   -5.5563   -1.6574 H         1 <0>         0.1215
     51 H13        -4.9379   -4.5900   -3.8661 H         1 <0>         0.1237
     52 H14        -2.6501   -3.8488   -4.3952 H         1 <0>         0.1229
     53 H15        -0.9071    1.0460   -4.0784 H         1 <0>         0.0763
     54 H16        -0.7649    1.7154   -2.4353 H         1 <0>         0.0796
     55 H17         1.7050    1.5509   -2.5821 H         1 <0>         0.0720
     56 H18         1.5627    0.8814   -4.2252 H         1 <0>         0.0710
     57 H19         0.8450    2.2735   -6.0769 H         1 <0>         0.1214
     58 H20         0.7255    4.5480   -7.0053 H         1 <0>         0.1326
     59 H21         1.0881    6.1612   -3.0482 H         1 <0>         0.1294
     60 H22         1.1956    3.8782   -2.1394 H         1 <0>         0.1241
     61 H23         0.9884    7.8068   -3.8585 H         1 <0>         0.3915
     62 H24         0.9280   10.1756   -3.3972 H         1 <0>         0.0603
     63 H25         0.3349   11.2761   -4.6643 H         1 <0>         0.0725
     64 H26        -1.7633    9.9640   -4.8216 H         1 <0>         0.0526
     65 H27        -1.1701    8.8636   -3.5545 H         1 <0>         0.0512
@<TRIPOS>BOND
     1    1    2 1
     2    1   40 1
     3    1   41 1
     4    1   42 1
     5    2   10 ar
     6    2    3 ar
     7    3    7 ar
     8    3    4 1
     9    4    5 2
    10    4   19 1
    11    5    6 1
    12    5   43 1
    13    6    7 1
    14    6   12 1
    15    7    8 ar
    16    8    9 ar
    17    9   10 ar
    18    9   11 1
    19   11   44 1
    20   11   45 1
    21   12   13 1
    22   12   46 1
    23   12   47 1
    24   13   18 ar
    25   13   14 ar
    26   14   15 ar
    27   14   48 1
    28   15   16 ar
    29   15   49 1
    30   16   17 ar
    31   16   50 1
    32   17   18 ar
    33   17   51 1
    34   18   52 1
    35   19   20 1
    36   19   53 1
    37   19   54 1
    38   20   21 1
    39   20   55 1
    40   20   56 1
    41   21   26 ar
    42   21   22 ar
    43   22   23 ar
    44   22   57 1
    45   23   24 ar
    46   23   58 1
    47   24   25 ar
    48   24   27 1
    49   25   26 ar
    50   25   59 1
    51   26   60 1
    52   27   28 2
    53   27   29 am
    54   29   30 1
    55   29   61 1
    56   30   31 1
    57   30   32 1
    58   30   37 1
    59   32   33 1
    60   32   62 1
    61   32   63 1
    62   33   34 1
    63   33   64 1
    64   33   65 1
    65   34   35 2
    66   34   36 1
    67   37   38 2
    68   37   39 1
@<TRIPOS>MOLECULE
CHEMBL168524
   56    60     0     0     0
SMALL
USER_CHARGES

@<TRIPOS>ATOM
      1 C1         -0.0151    1.3660    0.2302 C.ar      1 <0>        -0.1261
      2 C2          1.1690    2.0793    0.2233 C.ar      1 <0>        -0.0200
      3 C3          2.3662    1.4292   -0.0109 C.ar      1 <0>        -0.6703
      4 C4          2.3795    0.0657   -0.2378 C.ar      1 <0>        -0.0162
      5 C5          1.1955   -0.6478   -0.2301 C.ar      1 <0>        -0.1195
      6 C6         -0.0019    0.0025    0.0028 C.ar      1 <0>        -0.0594
      7 C7         -1.2926   -0.7753    0.0107 C.3       1 <0>         0.1522
      8 N1         -1.7874   -0.9143   -1.3612 N.pl3     1 <0>        -0.6085
      9 C8         -1.4906   -2.1221   -2.1432 C.3       1 <0>         0.1160
     10 C9         -1.0682   -1.6774   -3.5496 C.3       1 <0>        -0.1418
     11 C10        -2.2457   -0.9686   -4.2181 C.3       1 <0>        -0.0812
     12 C11        -2.7910    0.1115   -3.3201 C.ar      1 <0>        -0.1014
     13 C12        -2.5571    0.1009   -1.9479 C.ar      1 <0>         0.2687
     14 C13        -3.0770    1.0996   -1.1376 C.ar      1 <0>        -0.1857
     15 C14        -3.8382    2.1154   -1.6930 C.ar      1 <0>         0.1370
     16 C15        -4.0812    2.1308   -3.0760 C.ar      1 <0>         0.0030
     17 C16        -3.5425    1.1233   -3.8835 C.ar      1 <0>        -0.0360
     18 N2         -4.8446    3.2274   -3.3352 N.pl3     1 <0>        -0.5247
     19 C17        -5.0807    3.8720   -2.2208 C.cat     1 <0>         0.6468
     20 N3         -4.4819    3.2274   -1.1755 N.pl3     1 <0>        -0.5741
     21 H1         -4.5038    3.4979   -0.2443 H         1 <0>         0.4572
     22 N4         -5.8235    5.0305   -2.1172 N.pl3     1 <0>        -0.7986
     23 S1          3.8753    2.3387   -0.0208 S.o2      1 <0>         2.6875
     24 O1          4.7955    1.5901   -0.8032 O.2       1 <0>        -0.9459
     25 O2          3.5362    3.6849   -0.3240 O.2       1 <0>        -0.9497
     26 N5          4.4593    2.3352    1.5288 N.pl3     1 <0>        -0.9991
     27 C18         4.0837    3.3913    2.4822 C.3       1 <0>         0.0845
     28 C19         3.6002    2.7254    3.7756 C.3       1 <0>         0.0475
     29 O3          4.5856    1.7898    4.2202 O.3       1 <0>        -0.3720
     30 C20         4.8226    0.7128    3.3104 C.3       1 <0>         0.0472
     31 C21         5.3642    1.2726    1.9949 C.3       1 <0>         0.0836
     32 H2         -0.9500    1.8731    0.4176 H         1 <0>         0.1270
     33 H3          1.1586    3.1446    0.4006 H         1 <0>         0.1397
     34 H4          3.3148   -0.4421   -0.4215 H         1 <0>         0.1435
     35 H5          1.2058   -1.7130   -0.4081 H         1 <0>         0.1345
     36 H6         -1.1187   -1.7636    0.4362 H         1 <0>         0.1036
     37 H7         -2.0321   -0.2460    0.6117 H         1 <0>         0.0909
     38 H8         -0.6792   -2.6769   -1.6721 H         1 <0>         0.0914
     39 H9         -2.3799   -2.7492   -2.2058 H         1 <0>         0.0767
     40 H10        -0.2231   -0.9928   -3.4776 H         1 <0>         0.0759
     41 H11        -0.7848   -2.5496   -4.1387 H         1 <0>         0.0928
     42 H12        -1.9121   -0.5228   -5.1552 H         1 <0>         0.0898
     43 H13        -3.0317   -1.6947   -4.4256 H         1 <0>         0.0895
     44 H14        -2.8887    1.0851   -0.0743 H         1 <0>         0.1462
     45 H15        -3.7252    1.1293   -4.9479 H         1 <0>         0.1502
     46 H16        -6.2167    5.4271   -2.9102 H         1 <0>         0.4418
     47 H17        -5.9524    5.4481   -1.2512 H         1 <0>         0.4417
     48 H18         4.9489    4.0194    2.6940 H         1 <0>         0.0894
     49 H19         3.2828    3.9987    2.0605 H         1 <0>         0.0980
     50 H20         3.4481    3.4856    4.5417 H         1 <0>         0.1097
     51 H21         2.6616    2.2039    3.5878 H         1 <0>         0.0540
     52 H22         5.5500    0.0252    3.7419 H         1 <0>         0.1116
     53 H23         3.8885    0.1840    3.1209 H         1 <0>         0.0546
     54 H24         5.4110    0.4776    1.2506 H         1 <0>         0.1004
     55 H25         6.3606    1.6837    2.1568 H         1 <0>         0.0896
     56 H26        -5.1646    3.4912   -4.2121 H         1 <0>         0.4562
@<TRIPOS>BOND
     1    1    6 ar
     2    1    2 ar
     3    1   32 1
     4    2    3 ar
     5    2   33 1
     6    3    4 ar
     7    3   23 1
     8    4    5 ar
     9    4   34 1
    10    5    6 ar
    11    5   35 1
    12    6    7 1
    13    7    8 1
    14    7   36 1
    15    7   37 1
    16    8   13 1
    17    8    9 1
    18    9   10 1
    19    9   38 1
    20    9   39 1
    21   10   11 1
    22   10   40 1
    23   10   41 1
    24   11   12 1
    25   11   42 1
    26   11   43 1
    27   12   17 ar
    28   12   13 ar
    29   13   14 ar
    30   14   15 ar
    31   14   44 1
    32   15   20 1
    33   15   16 ar
    34   16   17 ar
    35   16   18 1
    36   17   45 1
    37   18   19 2
    38   18   56 1
    39   19   20 1
    40   19   22 1
    41   20   21 1
    42   22   46 1
    43   22   47 1
    44   23   24 2
    45   23   25 2
    46   23   26 1
    47   26   31 1
    48   26   27 1
    49   27   28 1
    50   27   48 1
    51   27   49 1
    52   28   29 1
    53   28   50 1
    54   28   51 1
    55   29   30 1
    56   30   31 1
    57   30   52 1
    58   30   53 1
    59   31   54 1
    60   31   55 1
@<TRIPOS>MOLECULE
CHEMBL125856
   65    68     0     0     0
SMALL
USER_CHARGES

@<TRIPOS>ATOM
      1 C1         -3.0009   -0.8810   -1.3772 C.3       1 <0>        -0.1225
      2 C2         -2.3070    0.3696   -1.8521 C.ar      1 <0>        -0.0317
      3 C3         -1.6097    0.3513   -3.0394 C.ar      1 <0>        -0.1116
      4 C4         -0.9665    1.5088   -3.4814 C.ar      1 <0>         0.1593
      5 C5         -1.0419    2.6838   -2.7006 C.ar      1 <0>        -0.2015
      6 C6         -1.7525    2.6812   -1.5025 C.ar      1 <0>        -0.0170
      7 C7         -2.3834    1.5276   -1.0898 C.ar      1 <0>        -0.1320
      8 C8         -3.1585    1.5215    0.2025 C.3       1 <0>         0.1686
      9 N1         -3.0305    2.8269    0.8549 N.pl3     1 <0>        -0.6171
     10 C9         -3.9908    3.8923    0.5564 C.3       1 <0>         0.2274
     11 C10        -5.1223    3.8098    1.4943 C.1       1 <0>        -0.2077
     12 C11        -6.0248    3.7441    2.2423 C.1       1 <0>        -0.1856
     13 C12        -1.9976    3.0548    1.7575 C.ar      1 <0>         0.2499
     14 C13        -1.0184    2.0833    1.9523 C.ar      1 <0>        -0.2034
     15 C14        -0.0009    2.2994    2.8367 C.ar      1 <0>        -0.0097
     16 C15         0.0632    3.4995    3.5519 C.ar      1 <0>        -0.2003
     17 C16        -0.9193    4.4788    3.3584 C.ar      1 <0>         0.2013
     18 C17        -1.9417    4.2544    2.4590 C.ar      1 <0>        -0.2407
     19 F1         -0.8636    5.6405    4.0459 F         1 <0>        -0.1143
     20 C18         1.1611    3.7328    4.5069 C.2       1 <0>         0.5577
     21 O1          1.2151    4.7769    5.1280 O.2       1 <0>        -0.5441
     22 N2          2.1052    2.7889    4.6920 N.am      1 <0>        -0.6826
     23 C19         3.1966    3.0208    5.6414 C.3       1 <0>         0.0784
     24 C20         4.4065    2.1724    5.2447 C.3       1 <0>        -0.1056
     25 C21         4.9398    2.6461    3.8912 C.3       1 <0>        -0.1037
     26 C22         6.1497    1.7977    3.4946 C.3       1 <0>        -0.0018
     27 C23         6.6751    2.2643    2.1614 C.2       1 <0>         0.0640
     28 N3          7.5946    3.1963    1.9568 N.2       1 <0>        -0.3905
     29 N4          7.7656    3.3020    0.6833 N.2       1 <0>        -0.2085
     30 N5          6.9863    2.4699    0.0849 N.2       1 <0>        -0.2096
     31 N6          6.3107    1.8176    0.9683 N.2       1 <0>        -0.3920
     32 C24         2.7467    2.6371    7.0275 C.2       1 <0>         0.4950
     33 O2          1.6937    2.0428    7.1840 O.co2     1 <0>        -0.6928
     34 O3          3.4357    2.9210    7.9925 O.co2     1 <0>        -0.7012
     35 C25        -0.3530    3.8856   -3.1940 C.2       1 <0>         0.5492
     36 N7          0.3105    3.7850   -4.3693 N.am      1 <0>        -0.6537
     37 C26         0.3296    2.6121   -5.0548 C.2       1 <0>         0.3969
     38 N8         -0.2684    1.5353   -4.6443 N.2       1 <0>        -0.5243
     39 C27         1.0839    2.5582   -6.3583 C.3       1 <0>        -0.1110
     40 O4         -0.3789    4.9304   -2.5699 O.2       1 <0>        -0.5036
     41 H1         -4.0506   -0.8471   -1.6690 H         1 <0>         0.0766
     42 H2         -2.5266   -1.7530   -1.8274 H         1 <0>         0.0731
     43 H3         -2.9275   -0.9474   -0.2917 H         1 <0>         0.0752
     44 H4         -1.5604   -0.5544   -3.6257 H         1 <0>         0.1388
     45 H5         -1.8119    3.5778   -0.9034 H         1 <0>         0.1414
     46 H6         -4.2095    1.3205   -0.0051 H         1 <0>         0.0913
     47 H7         -2.7633    0.7467    0.8595 H         1 <0>         0.0981
     48 H8         -3.5025    4.8612    0.6605 H         1 <0>         0.1035
     49 H9         -4.3557    3.7770   -0.4642 H         1 <0>         0.0994
     50 H10        -6.8320    3.6853    2.9112 H         1 <0>         0.2156
     51 H11        -1.0645    1.1553    1.4018 H         1 <0>         0.1308
     52 H12         0.7552    1.5425    2.9843 H         1 <0>         0.1372
     53 H13        -2.6996    5.0078    2.3029 H         1 <0>         0.1355
     54 H14         2.0620    1.9561    4.1966 H         1 <0>         0.3887
     55 H15         3.4721    4.0753    5.6277 H         1 <0>         0.0821
     56 H16         5.1862    2.2765    5.9992 H         1 <0>         0.0791
     57 H17         4.1086    1.1264    5.1720 H         1 <0>         0.0585
     58 H18         4.1600    2.5420    3.1368 H         1 <0>         0.0557
     59 H19         5.2377    3.6921    3.9640 H         1 <0>         0.0578
     60 H20         6.9295    1.9018    4.2490 H         1 <0>         0.0650
     61 H21         5.8519    0.7517    3.4218 H         1 <0>         0.0631
     62 H22         2.1163    2.2645   -6.1687 H         1 <0>         0.1011
     63 H23         0.6146    1.8299   -7.0198 H         1 <0>         0.1019
     64 H24         1.0664    3.5410   -6.8292 H         1 <0>         0.0847
     65 H25         0.7766    4.5574   -4.7257 H         1 <0>         0.4183
@<TRIPOS>BOND
     1    1   41 1
     2    1   42 1
     3    1   43 1
     4    1    2 1
     5    2    7 ar
     6    2    3 ar
     7    3   44 1
     8    3    4 ar
     9    4    5 ar
    10    4   38 1
    11    5   35 1
    12    5    6 ar
    13    6   45 1
    14    6    7 ar
    15    7    8 1
    16    8    9 1
    17    8   46 1
    18    8   47 1
    19    9   10 1
    20    9   13 1
    21   10   11 1
    22   10   48 1
    23   10   49 1
    24   11   12 3
    25   12   50 1
    26   13   18 ar
    27   13   14 ar
    28   14   15 ar
    29   14   51 1
    30   15   16 ar
    31   15   52 1
    32   16   17 ar
    33   16   20 1
    34   17   18 ar
    35   17   19 1
    36   18   53 1
    37   20   21 2
    38   20   22 am
    39   22   23 1
    40   22   54 1
    41   23   24 1
    42   23   32 1
    43   23   55 1
    44   24   25 1
    45   24   56 1
    46   24   57 1
    47   25   26 1
    48   25   58 1
    49   25   59 1
    50   26   60 1
    51   26   61 1
    52   26   27 1
    53   27   28 2
    54   27   31 1
    55   28   29 1
    56   29   30 2
    57   30   31 1
    58   32   33 2
    59   32   34 1
    60   35   40 2
    61   35   36 am
    62   36   37 1
    63   36   65 1
    64   37   38 2
    65   37   39 1
    66   39   62 1
    67   39   63 1
    68   39   64 1
@<TRIPOS>MOLECULE
CHEMBL125856__1
   65    68     0     0     0
SMALL
USER_CHARGES

@<TRIPOS>ATOM
      1 C1         -3.0009   -0.8810   -1.3772 C.3       1 <0>        -0.1243
      2 C2         -2.3070    0.3696   -1.8521 C.ar      1 <0>        -0.0301
      3 C3         -1.6097    0.3513   -3.0394 C.ar      1 <0>        -0.1112
      4 C4         -0.9665    1.5088   -3.4814 C.ar      1 <0>         0.1557
      5 C5         -1.0419    2.6838   -2.7006 C.ar      1 <0>        -0.2015
      6 C6         -1.7525    2.6812   -1.5025 C.ar      1 <0>        -0.0178
      7 C7         -2.3834    1.5276   -1.0898 C.ar      1 <0>        -0.1284
      8 C8         -3.1585    1.5215    0.2025 C.3       1 <0>         0.1665
      9 N1         -3.0305    2.8269    0.8549 N.pl3     1 <0>        -0.6171
     10 C9         -3.9908    3.8923    0.5564 C.3       1 <0>         0.2282
     11 C10        -5.1223    3.8098    1.4943 C.1       1 <0>        -0.2106
     12 C11        -6.0248    3.7441    2.2423 C.1       1 <0>        -0.1825
     13 C12        -1.9976    3.0548    1.7575 C.ar      1 <0>         0.2503
     14 C13        -1.0184    2.0833    1.9523 C.ar      1 <0>        -0.2033
     15 C14        -0.0009    2.2994    2.8367 C.ar      1 <0>        -0.0093
     16 C15         0.0632    3.4995    3.5519 C.ar      1 <0>        -0.2020
     17 C16        -0.9193    4.4788    3.3584 C.ar      1 <0>         0.2016
     18 C17        -1.9417    4.2544    2.4590 C.ar      1 <0>        -0.2406
     19 F1         -0.8636    5.6405    4.0459 F         1 <0>        -0.1140
     20 C18         1.1611    3.7328    4.5069 C.2       1 <0>         0.5530
     21 O1          1.2151    4.7769    5.1280 O.2       1 <0>        -0.5418
     22 N2          2.1052    2.7889    4.6920 N.am      1 <0>        -0.6831
     23 C19         3.1966    3.0208    5.6414 C.3       1 <0>         0.0793
     24 C20         3.7369    1.6774    6.1354 C.3       1 <0>        -0.1070
     25 C21         2.6515    0.9541    6.9352 C.3       1 <0>        -0.1032
     26 C22         3.1919   -0.3893    7.4292 C.3       1 <0>        -0.0019
     27 C23         2.1228   -1.1017    8.2170 C.2       1 <0>         0.0637
     28 N3          1.2166   -1.9420    7.7389 N.2       1 <0>        -0.3918
     29 N4          0.4886   -2.3343    8.7281 N.2       1 <0>        -0.2090
     30 N5          0.9073   -1.7696    9.8068 N.2       1 <0>        -0.2084
     31 N6          1.9117   -1.0129    9.5222 N.2       1 <0>        -0.3907
     32 C24         4.3011    3.7865    4.9597 C.2       1 <0>         0.4958
     33 O2          5.0091    4.5402    5.6057 O.co2     1 <0>        -0.6989
     34 O3          4.4868    3.6523    3.7622 O.co2     1 <0>        -0.6959
     35 C25        -0.3530    3.8856   -3.1940 C.2       1 <0>         0.5486
     36 N7          0.3105    3.7850   -4.3693 N.am      1 <0>        -0.6547
     37 C26         0.3296    2.6121   -5.0548 C.2       1 <0>         0.3928
     38 N8         -0.2684    1.5353   -4.6443 N.2       1 <0>        -0.5224
     39 C27         1.0839    2.5582   -6.3583 C.3       1 <0>        -0.1098
     40 O4         -0.3789    4.9304   -2.5699 O.2       1 <0>        -0.5024
     41 H1         -4.0506   -0.8471   -1.6690 H         1 <0>         0.0777
     42 H2         -2.5266   -1.7530   -1.8274 H         1 <0>         0.0736
     43 H3         -2.9275   -0.9474   -0.2917 H         1 <0>         0.0770
     44 H4         -1.5604   -0.5544   -3.6257 H         1 <0>         0.1390
     45 H5         -1.8119    3.5778   -0.9034 H         1 <0>         0.1422
     46 H6         -4.2095    1.3205   -0.0051 H         1 <0>         0.0925
     47 H7         -2.7633    0.7467    0.8595 H         1 <0>         0.0998
     48 H8         -3.5025    4.8612    0.6605 H         1 <0>         0.1033
     49 H9         -4.3557    3.7770   -0.4642 H         1 <0>         0.0990
     50 H10        -6.8320    3.6853    2.9112 H         1 <0>         0.2160
     51 H11        -1.0645    1.1553    1.4018 H         1 <0>         0.1310
     52 H12         0.7552    1.5425    2.9843 H         1 <0>         0.1379
     53 H13        -2.6996    5.0078    2.3029 H         1 <0>         0.1358
     54 H14         2.0620    1.9561    4.1966 H         1 <0>         0.3901
     55 H15         2.8247    3.5967    6.4889 H         1 <0>         0.0818
     56 H16         4.0268    1.0660    5.2808 H         1 <0>         0.0621
     57 H17         4.6053    1.8469    6.7720 H         1 <0>         0.0747
     58 H18         2.3617    1.5655    7.7898 H         1 <0>         0.0580
     59 H19         1.7832    0.7845    6.2986 H         1 <0>         0.0566
     60 H20         3.4818   -1.0008    6.5747 H         1 <0>         0.0634
     61 H21         4.0602   -0.2198    8.0659 H         1 <0>         0.0645
     62 H22         2.1163    2.2645   -6.1687 H         1 <0>         0.0985
     63 H23         0.6146    1.8299   -7.0198 H         1 <0>         0.1019
     64 H24         1.0664    3.5410   -6.8292 H         1 <0>         0.0845
     65 H25         0.7766    4.5574   -4.7257 H         1 <0>         0.4174
@<TRIPOS>BOND
     1    1   41 1
     2    1   42 1
     3    1   43 1
     4    1    2 1
     5    2    7 ar
     6    2    3 ar
     7    3   44 1
     8    3    4 ar
     9    4    5 ar
    10    4   38 1
    11    5   35 1
    12    5    6 ar
    13    6   45 1
    14    6    7 ar
    15    7    8 1
    16    8    9 1
    17    8   46 1
    18    8   47 1
    19    9   10 1
    20    9   13 1
    21   10   11 1
    22   10   48 1
    23   10   49 1
    24   11   12 3
    25   12   50 1
    26   13   18 ar
    27   13   14 ar
    28   14   15 ar
    29   14   51 1
    30   15   16 ar
    31   15   52 1
    32   16   17 ar
    33   16   20 1
    34   17   18 ar
    35   17   19 1
    36   18   53 1
    37   20   21 2
    38   20   22 am
    39   22   23 1
    40   22   54 1
    41   23   24 1
    42   23   32 1
    43   23   55 1
    44   24   25 1
    45   24   56 1
    46   24   57 1
    47   25   26 1
    48   25   58 1
    49   25   59 1
    50   26   60 1
    51   26   61 1
    52   26   27 1
    53   27   28 2
    54   27   31 1
    55   28   29 1
    56   29   30 2
    57   30   31 1
    58   32   33 2
    59   32   34 1
    60   35   40 2
    61   35   36 am
    62   36   37 1
    63   36   65 1
    64   37   38 2
    65   37   39 1
    66   39   62 1
    67   39   63 1
    68   39   64 1
@<TRIPOS>MOLECULE
CHEMBL34259
   53    55     0     0     0
SMALL
USER_CHARGES

@<TRIPOS>ATOM
      1 C1         -0.0178    1.4608    0.0101 C.3       1 <0>         0.0943
      2 N1          0.0021   -0.0041    0.0020 N.pl3     1 <0>        -0.6229
      3 C2          0.0241   -0.7433    1.2666 C.3       1 <0>         0.1846
      4 C3         -1.3889   -1.0161    1.7137 C.ar      1 <0>         0.0299
      5 C4         -1.9892   -2.2351    1.3999 C.ar      1 <0>         0.1556
      6 N2         -3.2219   -2.4965    1.7797 N.ar      1 <0>        -0.4373
      7 C5         -3.9051   -1.5830    2.4739 C.ar      1 <0>         0.3718
      8 C6         -3.2902   -0.3458    2.7901 C.ar      1 <0>        -0.0918
      9 N3         -2.0425   -0.1038    2.4012 N.ar      1 <0>        -0.3728
     10 C7         -4.0706    0.6301    3.5527 C.ar      1 <0>         0.5432
     11 N4         -5.3055    0.2953    3.9004 N.ar      1 <0>        -0.6300
     12 C8         -5.8196   -0.8850    3.5693 C.ar      1 <0>         0.6362
     13 N5         -5.1609   -1.7987    2.8845 N.ar      1 <0>        -0.5990
     14 N6         -7.1130   -1.1692    3.9639 N.pl3     1 <0>        -0.8099
     15 N7         -3.5402    1.8539    3.8976 N.pl3     1 <0>        -0.7943
     16 C9          0.0000   -0.6928   -1.2059 C.ar      1 <0>         0.2179
     17 C10         0.0132   -2.0849   -1.2118 C.ar      1 <0>        -0.2113
     18 C11         0.0112   -2.7693   -2.4056 C.ar      1 <0>        -0.0159
     19 C12        -0.0041   -2.0653   -3.6133 C.ar      1 <0>        -0.1590
     20 C13        -0.0173   -0.6674   -3.6040 C.ar      1 <0>        -0.0366
     21 C14        -0.0210    0.0112   -2.4068 C.ar      1 <0>        -0.1985
     22 C15        -0.0058   -2.7960   -4.8948 C.2       1 <0>         0.5556
     23 O1          0.0061   -4.0119   -4.9015 O.2       1 <0>        -0.5600
     24 N8         -0.0205   -2.1158   -6.0583 N.am      1 <0>        -0.6793
     25 C16        -0.0222   -2.8414   -7.3310 C.3       1 <0>         0.0733
     26 H1         -0.6020   -3.7584   -7.2256 H         1 <0>         0.0773
     27 C17        -0.6480   -1.9644   -8.4172 C.3       1 <0>        -0.0801
     28 C18        -2.1222   -1.7198   -8.0888 C.3       1 <0>        -0.1777
     29 C19        -2.7386   -0.8559   -9.1588 C.2       1 <0>         0.4909
     30 O2         -2.0616   -0.4715  -10.0971 O.co2     1 <0>        -0.6975
     31 O3         -3.9143   -0.5414   -9.0862 O.co2     1 <0>        -0.7207
     32 C20         1.3940   -3.1839   -7.7158 C.2       1 <0>         0.4958
     33 O4          2.3190   -2.8526   -6.9939 O.co2     1 <0>        -0.6970
     34 O5          1.6147   -3.7923   -8.7491 O.co2     1 <0>        -0.7014
     35 H2          1.0048    1.8381    0.0023 H         1 <0>         0.0502
     36 H3         -0.5450    1.8219   -0.8730 H         1 <0>         0.0690
     37 H4         -0.5280    1.8123    0.9069 H         1 <0>         0.0657
     38 H5          0.5496   -1.6879    1.1262 H         1 <0>         0.1015
     39 H6          0.5371   -0.1514    2.0246 H         1 <0>         0.0948
     40 H7         -1.4361   -2.9733    0.8382 H         1 <0>         0.1815
     41 H8         -7.6209   -0.5150    4.4689 H         1 <0>         0.4148
     42 H9         -7.5132   -2.0229    3.7358 H         1 <0>         0.4190
     43 H10        -2.6346    2.0814    3.6347 H         1 <0>         0.4250
     44 H11        -4.0722    2.4880    4.4032 H         1 <0>         0.4139
     45 H12         0.0253   -2.6282   -0.2785 H         1 <0>         0.1208
     46 H13         0.0217   -3.8493   -2.4096 H         1 <0>         0.1351
     47 H14        -0.0287   -0.1208   -4.5353 H         1 <0>         0.1282
     48 H15        -0.0359    1.0910   -2.3989 H         1 <0>         0.1244
     49 H16        -0.0300   -1.1459   -6.0530 H         1 <0>         0.3877
     50 H17        -0.1225   -1.0104   -8.4615 H         1 <0>         0.0543
     51 H18        -0.5691   -2.4677   -9.3808 H         1 <0>         0.0783
     52 H19        -2.6477   -2.6737   -8.0445 H         1 <0>         0.0522
     53 H20        -2.2011   -1.2164   -7.1252 H         1 <0>         0.0501
@<TRIPOS>BOND
     1    1    2 1
     2    1   35 1
     3    1   36 1
     4    1   37 1
     5    2    3 1
     6    2   16 1
     7    3    4 1
     8    3   38 1
     9    3   39 1
    10    4    9 ar
    11    4    5 ar
    12    5    6 ar
    13    5   40 1
    14    6    7 ar
    15    7   13 ar
    16    7    8 ar
    17    8    9 ar
    18    8   10 ar
    19   10   11 ar
    20   10   15 1
    21   11   12 ar
    22   12   13 ar
    23   12   14 1
    24   14   41 1
    25   14   42 1
    26   15   43 1
    27   15   44 1
    28   16   21 ar
    29   16   17 ar
    30   17   18 ar
    31   17   45 1
    32   18   19 ar
    33   18   46 1
    34   19   20 ar
    35   19   22 1
    36   20   21 ar
    37   20   47 1
    38   21   48 1
    39   22   23 2
    40   22   24 am
    41   24   25 1
    42   24   49 1
    43   25   26 1
    44   25   27 1
    45   25   32 1
    46   27   28 1
    47   27   50 1
    48   27   51 1
    49   28   29 1
    50   28   52 1
    51   28   53 1
    52   29   30 2
    53   29   31 1
    54   32   33 2
    55   32   34 1
@<TRIPOS>MOLECULE
CHEMBL458184
   42    45     0     0     0
SMALL
USER_CHARGES

@<TRIPOS>ATOM
      1 C1          0.8017    2.0709    0.7298 C.ar      1 <0>        -0.0907
      2 C2          1.6079    1.4668    1.6780 C.ar      1 <0>        -0.1131
      3 C3          2.4762    0.4599    1.3090 C.ar      1 <0>        -0.1105
      4 C4          2.5401    0.0515   -0.0229 C.ar      1 <0>        -0.0731
      5 C5          1.7250    0.6642   -0.9742 C.ar      1 <0>        -0.0597
      6 C6          0.8606    1.6700   -0.5930 C.ar      1 <0>        -0.1138
      7 C7          3.4706   -1.0288   -0.4258 C.ar      1 <0>         0.1859
      8 C8          3.5765   -2.1986    0.3656 C.ar      1 <0>         0.3895
      9 N1          4.4005   -3.1665    0.0170 N.ar      1 <0>        -0.4646
     10 C9          5.1419   -3.0425   -1.0923 C.ar      1 <0>         0.1227
     11 C10         6.0268   -4.0603   -1.4850 C.ar      1 <0>         0.0371
     12 C11         6.7693   -3.9112   -2.6166 C.ar      1 <0>        -0.0301
     13 C12         6.6658   -2.7603   -3.3948 C.ar      1 <0>        -0.0010
     14 C13         5.8192   -1.7531   -3.0451 C.ar      1 <0>         0.0049
     15 C14         5.0359   -1.8718   -1.8839 C.ar      1 <0>         0.1023
     16 N2          4.1921   -0.8980   -1.5228 N.ar      1 <0>        -0.3705
     17 N3          5.7233   -0.5380   -3.8850 N.pl3     1 <0>         0.0297
     18 O1          6.3975   -0.4386   -4.8836 O.2       1 <0>        -0.1565
     19 O2          4.9707    0.3551   -3.5723 O.3       1 <0>        -0.0898
     20 N4          7.7002   -4.9870   -3.0255 N.pl3     1 <0>         0.0293
     21 O3          7.7971   -5.9892   -2.3563 O.2       1 <0>        -0.1305
     22 O4          8.3635   -4.8635   -4.0287 O.3       1 <0>        -0.1267
     23 N5          2.8100   -2.3260    1.5127 N.pl3     1 <0>        -0.6314
     24 C15         2.9985   -3.4211    2.3613 C.ar      1 <0>         0.1639
     25 C16         4.2641   -3.9735    2.5137 C.ar      1 <0>        -0.1014
     26 C17         4.4481   -5.0551    3.3524 C.ar      1 <0>        -0.0740
     27 C18         3.3732   -5.5893    4.0411 C.ar      1 <0>        -0.0435
     28 C19         2.1104   -5.0410    3.8915 C.ar      1 <0>        -0.0085
     29 C20         1.9220   -3.9548    3.0576 C.ar      1 <0>        -0.1245
     30 Cl1         0.7643   -5.7142    4.7567 Cl        1 <0>        -0.0362
     31 Cl2         3.6083   -6.9494    5.0941 Cl        1 <0>        -0.0406
     32 H1          0.1205    2.8555    1.0242 H         1 <0>         0.1330
     33 H2          1.5578    1.7842    2.7091 H         1 <0>         0.1353
     34 H3          3.1053   -0.0107    2.0500 H         1 <0>         0.1292
     35 H4          1.7703    0.3524   -2.0072 H         1 <0>         0.1354
     36 H5          0.2286    2.1450   -1.3287 H         1 <0>         0.1357
     37 H6          6.1181   -4.9578   -0.8912 H         1 <0>         0.1881
     38 H7          7.2657   -2.6656   -4.2878 H         1 <0>         0.1919
     39 H8          2.1426   -1.6555    1.7271 H         1 <0>         0.4320
     40 H9          5.1035   -3.5576    1.9764 H         1 <0>         0.1470
     41 H10         5.4318   -5.4848    3.4706 H         1 <0>         0.1501
     42 H11         0.9380   -3.5244    2.9444 H         1 <0>         0.1478
@<TRIPOS>BOND
     1    1    6 ar
     2    1    2 ar
     3    1   32 1
     4    2    3 ar
     5    2   33 1
     6    3    4 ar
     7    3   34 1
     8    4    5 ar
     9    4    7 1
    10    5    6 ar
    11    5   35 1
    12    6   36 1
    13    7   16 ar
    14    7    8 ar
    15    8    9 ar
    16    8   23 1
    17    9   10 ar
    18   10   15 ar
    19   10   11 ar
    20   11   12 ar
    21   11   37 1
    22   12   13 ar
    23   12   20 1
    24   13   14 ar
    25   13   38 1
    26   14   15 ar
    27   14   17 1
    28   15   16 ar
    29   17   18 2
    30   17   19 1
    31   20   21 2
    32   20   22 1
    33   23   24 1
    34   23   39 1
    35   24   29 ar
    36   24   25 ar
    37   25   26 ar
    38   25   40 1
    39   26   27 ar
    40   26   41 1
    41   27   28 ar
    42   27   31 1
    43   28   29 ar
    44   28   30 1
    45   29   42 1
@<TRIPOS>MOLECULE
CHEMBL268151
   56    59     0     0     0
SMALL
USER_CHARGES

@<TRIPOS>ATOM
      1 C1         -3.0009   -0.8810   -1.3772 C.3       1 <0>        -0.1252
      2 C2         -2.3070    0.3696   -1.8521 C.ar      1 <0>        -0.0286
      3 C3         -1.6097    0.3513   -3.0394 C.ar      1 <0>        -0.1102
      4 C4         -0.9665    1.5088   -3.4814 C.ar      1 <0>         0.1624
      5 C5         -1.0419    2.6838   -2.7006 C.ar      1 <0>        -0.2046
      6 C6         -1.7525    2.6812   -1.5025 C.ar      1 <0>        -0.0201
      7 C7         -2.3834    1.5276   -1.0898 C.ar      1 <0>        -0.1358
      8 C8         -3.1585    1.5215    0.2025 C.3       1 <0>         0.1648
      9 N1         -3.0305    2.8269    0.8549 N.pl3     1 <0>        -0.6096
     10 C9         -3.9908    3.8923    0.5564 C.3       1 <0>         0.2254
     11 C10        -5.1223    3.8098    1.4943 C.1       1 <0>        -0.2211
     12 C11        -6.0248    3.7441    2.2423 C.1       1 <0>        -0.1682
     13 C12        -1.9976    3.0548    1.7575 C.ar      1 <0>         0.2727
     14 C13        -1.0184    2.0833    1.9523 C.ar      1 <0>        -0.2068
     15 C14        -0.0009    2.2994    2.8367 C.ar      1 <0>        -0.0082
     16 C15         0.0632    3.4995    3.5519 C.ar      1 <0>        -0.2347
     17 C16        -0.9193    4.4788    3.3584 C.ar      1 <0>         0.2156
     18 C17        -1.9417    4.2544    2.4590 C.ar      1 <0>        -0.2424
     19 F1         -0.8636    5.6405    4.0459 F         1 <0>        -0.1113
     20 C18         1.1611    3.7328    4.5069 C.2       1 <0>         0.5701
     21 O1          1.2151    4.7769    5.1280 O.2       1 <0>        -0.5253
     22 N2          2.1052    2.7889    4.6920 N.am      1 <0>        -0.7260
     23 C19         3.1966    3.0208    5.6414 C.3       1 <0>         0.2151
     24 C20         4.1090    1.8216    5.6606 C.2       1 <0>         0.0216
     25 N3          5.1684    1.5934    4.9253 N.2       1 <0>        -0.4984
     26 C21         5.8710    0.4862    5.0596 C.2       1 <0>         0.0303
     27 C22         5.4457   -0.4031    5.9931 C.2       1 <0>        -0.2201
     28 S1          4.0178    0.4539    6.6374 S.3       1 <0>         0.1294
     29 C23        -0.3530    3.8856   -3.1940 C.2       1 <0>         0.5494
     30 N4          0.3105    3.7850   -4.3693 N.am      1 <0>        -0.6539
     31 C24         0.3296    2.6121   -5.0548 C.2       1 <0>         0.3996
     32 N5         -0.2684    1.5353   -4.6443 N.2       1 <0>        -0.5235
     33 C25         1.0839    2.5582   -6.3583 C.3       1 <0>        -0.1133
     34 O2         -0.3789    4.9304   -2.5699 O.2       1 <0>        -0.5067
     35 H1         -4.0506   -0.8471   -1.6690 H         1 <0>         0.0810
     36 H2         -2.5266   -1.7530   -1.8274 H         1 <0>         0.0753
     37 H3         -2.9275   -0.9474   -0.2917 H         1 <0>         0.0738
     38 H4         -1.5604   -0.5544   -3.6257 H         1 <0>         0.1417
     39 H5         -1.8119    3.5778   -0.9034 H         1 <0>         0.1394
     40 H6         -4.2095    1.3205   -0.0051 H         1 <0>         0.0976
     41 H7         -2.7633    0.7467    0.8595 H         1 <0>         0.0984
     42 H8         -3.5025    4.8612    0.6605 H         1 <0>         0.1053
     43 H9         -4.3557    3.7770   -0.4642 H         1 <0>         0.1050
     44 H10        -6.8320    3.6853    2.9112 H         1 <0>         0.2186
     45 H11        -1.0645    1.1553    1.4018 H         1 <0>         0.1354
     46 H12         0.7552    1.5425    2.9843 H         1 <0>         0.1320
     47 H13        -2.6996    5.0078    2.3029 H         1 <0>         0.1431
     48 H14         2.0620    1.9561    4.1966 H         1 <0>         0.4009
     49 H15         3.7613    3.9022    5.3375 H         1 <0>         0.1032
     50 H16         2.7839    3.1795    6.6377 H         1 <0>         0.0982
     51 H17         6.7449    0.2951    4.4544 H         1 <0>         0.1760
     52 H18         5.8586   -1.3614    6.2714 H         1 <0>         0.2000
     53 H19         2.1163    2.2645   -6.1687 H         1 <0>         0.1001
     54 H20         0.6146    1.8299   -7.0198 H         1 <0>         0.1053
     55 H21         1.0664    3.5410   -6.8292 H         1 <0>         0.0876
     56 H22         0.7766    4.5574   -4.7257 H         1 <0>         0.4196
@<TRIPOS>BOND
     1    1   35 1
     2    1   36 1
     3    1   37 1
     4    1    2 1
     5    2    7 ar
     6    2    3 ar
     7    3   38 1
     8    3    4 ar
     9    4    5 ar
    10    4   32 1
    11    5   29 1
    12    5    6 ar
    13    6   39 1
    14    6    7 ar
    15    7    8 1
    16    8    9 1
    17    8   40 1
    18    8   41 1
    19    9   10 1
    20    9   13 1
    21   10   11 1
    22   10   42 1
    23   10   43 1
    24   11   12 3
    25   12   44 1
    26   13   18 ar
    27   13   14 ar
    28   14   15 ar
    29   14   45 1
    30   15   16 ar
    31   15   46 1
    32   16   17 ar
    33   16   20 1
    34   17   18 ar
    35   17   19 1
    36   18   47 1
    37   20   21 2
    38   20   22 am
    39   22   23 1
    40   22   48 1
    41   23   24 1
    42   23   49 1
    43   23   50 1
    44   24   28 1
    45   24   25 2
    46   25   26 1
    47   26   27 2
    48   26   51 1
    49   27   28 1
    50   27   52 1
    51   29   34 2
    52   29   30 am
    53   30   31 1
    54   30   56 1
    55   31   32 2
    56   31   33 1
    57   33   53 1
    58   33   54 1
    59   33   55 1
@<TRIPOS>MOLECULE
CHEMBL36639
   54    56     0     0     0
SMALL
USER_CHARGES

@<TRIPOS>ATOM
      1 C1         -0.0169    1.3937    0.0097 C.ar      1 <0>        -0.0180
      2 C2          1.1662    2.0965    0.0022 C.ar      1 <0>        -0.2040
      3 C3          2.3811    1.4169   -0.0131 C.ar      1 <0>         0.2217
      4 C4          2.4034    0.0249   -0.0208 C.ar      1 <0>        -0.2021
      5 C5          1.2237   -0.6836   -0.0138 C.ar      1 <0>        -0.0371
      6 C6          0.0021   -0.0041    0.0020 C.ar      1 <0>        -0.1630
      7 C7         -1.2644   -0.7605    0.0105 C.2       1 <0>         0.5540
      8 O1         -2.3263   -0.1682    0.0243 O.2       1 <0>        -0.5624
      9 N1         -1.2445   -2.1081    0.0031 N.am      1 <0>        -0.6784
     10 C8         -2.5022   -2.8593    0.0116 C.3       1 <0>         0.0735
     11 C9         -2.2637   -4.2464    0.6114 C.3       1 <0>        -0.0807
     12 C10        -1.8670   -4.1047    2.0823 C.3       1 <0>        -0.1773
     13 C11        -1.6321   -5.4710    2.6731 C.2       1 <0>         0.4911
     14 O2         -1.7693   -6.4659    1.9818 O.co2     1 <0>        -0.6978
     15 O3         -1.3049   -5.5815    3.8424 O.co2     1 <0>        -0.7204
     16 C12        -3.0110   -3.0030   -1.3996 C.2       1 <0>         0.4970
     17 O4         -2.3006   -2.6873   -2.3389 O.co2     1 <0>        -0.6981
     18 O5         -4.1331   -3.4348   -1.6021 O.co2     1 <0>        -0.7026
     19 N2          3.5749    2.1299   -0.0211 N.pl3     1 <0>        -0.7488
     20 C13         4.8542    1.4162   -0.0371 C.3       1 <0>         0.1194
     21 C14         6.0023    2.4276   -0.0432 C.3       1 <0>         0.1498
     22 C15         7.3420    1.6951    0.1112 C.3       1 <0>        -0.1320
     23 C16         8.4748    2.7192    0.0480 C.3       1 <0>        -0.0541
     24 C17         8.2231    3.8472    1.0133 C.2       1 <0>         0.1101
     25 C18         6.9728    4.1195    1.4828 C.2       1 <0>         0.0151
     26 C19         6.7911    5.1947    2.3793 C.2       1 <0>         0.5346
     27 N3          7.8691    5.9195    2.7478 N.am      1 <0>        -0.6438
     28 C20         9.0957    5.5993    2.2517 C.2       1 <0>         0.5904
     29 N4          9.2555    4.5976    1.4156 N.2       1 <0>        -0.5581
     30 N5         10.1880    6.3376    2.6323 N.pl3     1 <0>        -0.8322
     31 O6          5.6823    5.4639    2.8121 O.2       1 <0>        -0.5339
     32 N6          5.8632    3.3466    1.0956 N.pl3     1 <0>        -0.7267
     33 H1         -0.9590    1.9215    0.0260 H         1 <0>         0.1327
     34 H2          1.1522    3.1764    0.0078 H         1 <0>         0.1193
     35 H3          3.3474   -0.4995   -0.0326 H         1 <0>         0.1220
     36 H4          1.2416   -1.7634   -0.0204 H         1 <0>         0.1279
     37 H5         -0.3974   -2.5806   -0.0078 H         1 <0>         0.3887
     38 H6         -3.2399   -2.3261    0.6112 H         1 <0>         0.0772
     39 H7         -3.1771   -4.8365    0.5367 H         1 <0>         0.0760
     40 H8         -1.4631   -4.7456    0.0656 H         1 <0>         0.0559
     41 H9         -0.9536   -3.5146    2.1570 H         1 <0>         0.0510
     42 H10        -2.6677   -3.6056    2.6281 H         1 <0>         0.0524
     43 H11         3.5606    3.0997   -0.0161 H         1 <0>         0.3981
     44 H12         4.9299    0.7860    0.8490 H         1 <0>         0.0693
     45 H13         4.9126    0.7950   -0.9309 H         1 <0>         0.0773
     46 H14         5.9934    2.9911   -0.9762 H         1 <0>         0.0738
     47 H15         7.3682    1.1804    1.0717 H         1 <0>         0.0774
     48 H16         7.4580    0.9719   -0.6960 H         1 <0>         0.0889
     49 H17         9.4154    2.2310    0.3031 H         1 <0>         0.0895
     50 H18         8.5412    3.1198   -0.9635 H         1 <0>         0.0821
     51 H19        10.0815    7.0789    3.2487 H         1 <0>         0.4095
     52 H20        11.0667    6.1181    2.2849 H         1 <0>         0.4249
     53 H21         5.0210    3.4190    1.5714 H         1 <0>         0.4088
     54 H22         7.7701    6.6638    3.3619 H         1 <0>         0.4122
@<TRIPOS>BOND
     1    1    6 ar
     2    1    2 ar
     3    1   33 1
     4    2    3 ar
     5    2   34 1
     6    3    4 ar
     7    3   19 1
     8    4    5 ar
     9    4   35 1
    10    5    6 ar
    11    5   36 1
    12    6    7 1
    13    7    8 2
    14    7    9 am
    15    9   10 1
    16    9   37 1
    17   10   11 1
    18   10   16 1
    19   10   38 1
    20   11   12 1
    21   11   39 1
    22   11   40 1
    23   12   13 1
    24   12   41 1
    25   12   42 1
    26   13   14 2
    27   13   15 1
    28   16   17 2
    29   16   18 1
    30   19   20 1
    31   19   43 1
    32   20   21 1
    33   20   44 1
    34   20   45 1
    35   21   32 1
    36   21   22 1
    37   21   46 1
    38   22   23 1
    39   22   47 1
    40   22   48 1
    41   23   24 1
    42   23   49 1
    43   23   50 1
    44   24   29 1
    45   24   25 2
    46   25   26 1
    47   25   32 1
    48   26   27 am
    49   26   31 2
    50   27   28 1
    51   27   54 1
    52   28   29 2
    53   28   30 1
    54   30   51 1
    55   30   52 1
    56   32   53 1
@<TRIPOS>MOLECULE
CHEMBL36639__1
   54    56     0     0     0
SMALL
USER_CHARGES

@<TRIPOS>ATOM
      1 C1         -0.0169    1.3937    0.0097 C.ar      1 <0>        -0.0180
      2 C2          1.1662    2.0965    0.0022 C.ar      1 <0>        -0.2039
      3 C3          2.3811    1.4169   -0.0131 C.ar      1 <0>         0.2216
      4 C4          2.4034    0.0249   -0.0208 C.ar      1 <0>        -0.2020
      5 C5          1.2237   -0.6836   -0.0138 C.ar      1 <0>        -0.0371
      6 C6          0.0021   -0.0041    0.0020 C.ar      1 <0>        -0.1629
      7 C7         -1.2644   -0.7605    0.0105 C.2       1 <0>         0.5540
      8 O1         -2.3263   -0.1682    0.0243 O.2       1 <0>        -0.5624
      9 N1         -1.2445   -2.1081    0.0031 N.am      1 <0>        -0.6784
     10 C8         -2.5022   -2.8593    0.0116 C.3       1 <0>         0.0735
     11 C9         -2.2637   -4.2464    0.6114 C.3       1 <0>        -0.0808
     12 C10        -1.8670   -4.1047    2.0823 C.3       1 <0>        -0.1772
     13 C11        -1.6321   -5.4710    2.6731 C.2       1 <0>         0.4911
     14 O2         -1.7693   -6.4659    1.9818 O.co2     1 <0>        -0.6978
     15 O3         -1.3049   -5.5815    3.8424 O.co2     1 <0>        -0.7205
     16 C12        -3.0110   -3.0030   -1.3996 C.2       1 <0>         0.4968
     17 O4         -2.3006   -2.6873   -2.3389 O.co2     1 <0>        -0.6979
     18 O5         -4.1331   -3.4348   -1.6021 O.co2     1 <0>        -0.7027
     19 N2          3.5749    2.1299   -0.0211 N.pl3     1 <0>        -0.7488
     20 C13         4.8542    1.4162   -0.0371 C.3       1 <0>         0.1194
     21 C14         6.0023    2.4276   -0.0432 C.3       1 <0>         0.1497
     22 C15         7.3387    1.6968   -0.2311 C.3       1 <0>        -0.1320
     23 C16         8.4726    2.7204   -0.1797 C.3       1 <0>        -0.0541
     24 C17         8.2023    3.8580   -1.1284 C.2       1 <0>         0.1100
     25 C18         6.9430    4.1349   -1.5707 C.2       1 <0>         0.0151
     26 C19         6.7441    5.2190   -2.4526 C.2       1 <0>         0.5345
     27 N3          7.8147    5.9476   -2.8348 N.am      1 <0>        -0.6437
     28 C20         9.0507    5.6226   -2.3659 C.2       1 <0>         0.5902
     29 N4          9.2267    4.6125   -1.5432 N.2       1 <0>        -0.5581
     30 N5         10.1355    6.3647   -2.7602 N.pl3     1 <0>        -0.8322
     31 O6          5.6272    5.4920   -2.8617 O.2       1 <0>        -0.5338
     32 N6          5.8411    3.3580   -1.1698 N.pl3     1 <0>        -0.7267
     33 H1         -0.9590    1.9215    0.0260 H         1 <0>         0.1327
     34 H2          1.1522    3.1764    0.0078 H         1 <0>         0.1193
     35 H3          3.3474   -0.4995   -0.0326 H         1 <0>         0.1220
     36 H4          1.2416   -1.7634   -0.0204 H         1 <0>         0.1279
     37 H5         -0.3974   -2.5806   -0.0078 H         1 <0>         0.3887
     38 H6         -3.2399   -2.3261    0.6112 H         1 <0>         0.0773
     39 H7         -3.1771   -4.8365    0.5367 H         1 <0>         0.0760
     40 H8         -1.4631   -4.7456    0.0656 H         1 <0>         0.0559
     41 H9         -0.9536   -3.5146    2.1570 H         1 <0>         0.0510
     42 H10        -2.6677   -3.6056    2.6281 H         1 <0>         0.0524
     43 H11         3.5606    3.0997   -0.0161 H         1 <0>         0.3980
     44 H12         4.9299    0.7860    0.8490 H         1 <0>         0.0776
     45 H13         4.9126    0.7950   -0.9309 H         1 <0>         0.0691
     46 H14         6.0116    2.9817    0.8954 H         1 <0>         0.0739
     47 H15         7.4703    0.9656    0.5664 H         1 <0>         0.0890
     48 H16         7.3461    1.1918   -1.1970 H         1 <0>         0.0772
     49 H17         8.5587    3.1108    0.8344 H         1 <0>         0.0822
     50 H18         9.4080    2.2348   -0.4579 H         1 <0>         0.0894
     51 H19        10.0171    7.1122   -3.3670 H         1 <0>         0.4095
     52 H20        11.0208    6.1418   -2.4322 H         1 <0>         0.4249
     53 H21         4.9898    3.4351   -1.6284 H         1 <0>         0.4088
     54 H22         7.7039    6.6981   -3.4393 H         1 <0>         0.4122
@<TRIPOS>BOND
     1    1    6 ar
     2    1    2 ar
     3    1   33 1
     4    2    3 ar
     5    2   34 1
     6    3    4 ar
     7    3   19 1
     8    4    5 ar
     9    4   35 1
    10    5    6 ar
    11    5   36 1
    12    6    7 1
    13    7    8 2
    14    7    9 am
    15    9   10 1
    16    9   37 1
    17   10   11 1
    18   10   16 1
    19   10   38 1
    20   11   12 1
    21   11   39 1
    22   11   40 1
    23   12   13 1
    24   12   41 1
    25   12   42 1
    26   13   14 2
    27   13   15 1
    28   16   17 2
    29   16   18 1
    30   19   20 1
    31   19   43 1
    32   20   21 1
    33   20   44 1
    34   20   45 1
    35   21   32 1
    36   21   22 1
    37   21   46 1
    38   22   23 1
    39   22   47 1
    40   22   48 1
    41   23   24 1
    42   23   49 1
    43   23   50 1
    44   24   29 1
    45   24   25 2
    46   25   26 1
    47   25   32 1
    48   26   27 am
    49   26   31 2
    50   27   28 1
    51   27   54 1
    52   28   29 2
    53   28   30 1
    54   30   51 1
    55   30   52 1
    56   32   53 1
@<TRIPOS>MOLECULE
CHEMBL36639__2
   54    56     0     0     0
SMALL
USER_CHARGES

@<TRIPOS>ATOM
      1 C1         -0.0169    1.3937    0.0097 C.ar      1 <0>        -0.0177
      2 C2          1.1662    2.0965    0.0022 C.ar      1 <0>        -0.2041
      3 C3          2.3811    1.4169   -0.0131 C.ar      1 <0>         0.2224
      4 C4          2.4034    0.0249   -0.0208 C.ar      1 <0>        -0.2020
      5 C5          1.2237   -0.6836   -0.0138 C.ar      1 <0>        -0.0366
      6 C6          0.0021   -0.0041    0.0020 C.ar      1 <0>        -0.1648
      7 C7         -1.2644   -0.7605    0.0105 C.2       1 <0>         0.5493
      8 O1         -2.3263   -0.1682    0.0243 O.2       1 <0>        -0.5601
      9 N1         -1.2445   -2.1081    0.0031 N.am      1 <0>        -0.6791
     10 C8         -2.5022   -2.8593    0.0116 C.3       1 <0>         0.0744
     11 C9         -2.2758   -4.2399   -0.6078 C.3       1 <0>        -0.0821
     12 C10        -1.9084   -4.0824   -2.0846 C.3       1 <0>        -0.1769
     13 C11        -1.6854   -5.4422   -2.6946 C.2       1 <0>         0.4912
     14 O2         -1.8089   -6.4445   -2.0115 O.co2     1 <0>        -0.6979
     15 O3         -1.3815   -5.5401   -3.8713 O.co2     1 <0>        -0.7202
     16 C12        -2.9829   -3.0182    1.4310 C.2       1 <0>         0.4982
     17 O4         -4.1770   -3.0939    1.6654 O.co2     1 <0>        -0.7027
     18 O5         -2.1777   -3.0709    2.3450 O.co2     1 <0>        -0.6991
     19 N2          3.5749    2.1299   -0.0211 N.pl3     1 <0>        -0.7486
     20 C13         4.8542    1.4162   -0.0371 C.3       1 <0>         0.1192
     21 C14         6.0023    2.4276   -0.0432 C.3       1 <0>         0.1497
     22 C15         7.3420    1.6951    0.1112 C.3       1 <0>        -0.1320
     23 C16         8.4748    2.7192    0.0480 C.3       1 <0>        -0.0541
     24 C17         8.2231    3.8472    1.0133 C.2       1 <0>         0.1102
     25 C18         6.9728    4.1195    1.4828 C.2       1 <0>         0.0150
     26 C19         6.7911    5.1947    2.3793 C.2       1 <0>         0.5345
     27 N3          7.8691    5.9195    2.7478 N.am      1 <0>        -0.6438
     28 C20         9.0957    5.5993    2.2517 C.2       1 <0>         0.5904
     29 N4          9.2555    4.5976    1.4156 N.2       1 <0>        -0.5581
     30 N5         10.1880    6.3376    2.6323 N.pl3     1 <0>        -0.8322
     31 O6          5.6823    5.4639    2.8121 O.2       1 <0>        -0.5338
     32 N6          5.8632    3.3466    1.0956 N.pl3     1 <0>        -0.7268
     33 H1         -0.9590    1.9215    0.0260 H         1 <0>         0.1329
     34 H2          1.1522    3.1764    0.0078 H         1 <0>         0.1196
     35 H3          3.3474   -0.4995   -0.0326 H         1 <0>         0.1223
     36 H4          1.2416   -1.7634   -0.0204 H         1 <0>         0.1286
     37 H5         -0.3974   -2.5806   -0.0078 H         1 <0>         0.3901
     38 H6         -3.2516   -2.3197   -0.5676 H         1 <0>         0.0769
     39 H7         -1.4645   -4.7448   -0.0833 H         1 <0>         0.0596
     40 H8         -3.1876   -4.8309   -0.5212 H         1 <0>         0.0716
     41 H9         -2.7197   -3.5775   -2.6090 H         1 <0>         0.0525
     42 H10        -0.9966   -3.4914   -2.1711 H         1 <0>         0.0516
     43 H11         3.5606    3.0997   -0.0161 H         1 <0>         0.3982
     44 H12         4.9299    0.7860    0.8490 H         1 <0>         0.0693
     45 H13         4.9126    0.7950   -0.9309 H         1 <0>         0.0777
     46 H14         5.9934    2.9911   -0.9762 H         1 <0>         0.0739
     47 H15         7.3682    1.1804    1.0717 H         1 <0>         0.0772
     48 H16         7.4580    0.9719   -0.6960 H         1 <0>         0.0891
     49 H17         9.4154    2.2310    0.3031 H         1 <0>         0.0895
     50 H18         8.5412    3.1198   -0.9635 H         1 <0>         0.0822
     51 H19        10.0815    7.0789    3.2487 H         1 <0>         0.4095
     52 H20        11.0667    6.1181    2.2849 H         1 <0>         0.4249
     53 H21         5.0210    3.4190    1.5714 H         1 <0>         0.4088
     54 H22         7.7701    6.6638    3.3619 H         1 <0>         0.4122
@<TRIPOS>BOND
     1    1    6 ar
     2    1    2 ar
     3    1   33 1
     4    2    3 ar
     5    2   34 1
     6    3    4 ar
     7    3   19 1
     8    4    5 ar
     9    4   35 1
    10    5    6 ar
    11    5   36 1
    12    6    7 1
    13    7    8 2
    14    7    9 am
    15    9   10 1
    16    9   37 1
    17   10   11 1
    18   10   16 1
    19   10   38 1
    20   11   12 1
    21   11   39 1
    22   11   40 1
    23   12   13 1
    24   12   41 1
    25   12   42 1
    26   13   14 2
    27   13   15 1
    28   16   17 2
    29   16   18 1
    30   19   20 1
    31   19   43 1
    32   20   21 1
    33   20   44 1
    34   20   45 1
    35   21   32 1
    36   21   22 1
    37   21   46 1
    38   22   23 1
    39   22   47 1
    40   22   48 1
    41   23   24 1
    42   23   49 1
    43   23   50 1
    44   24   29 1
    45   24   25 2
    46   25   26 1
    47   25   32 1
    48   26   27 am
    49   26   31 2
    50   27   28 1
    51   27   54 1
    52   28   29 2
    53   28   30 1
    54   30   51 1
    55   30   52 1
    56   32   53 1
@<TRIPOS>MOLECULE
CHEMBL36639__3
   54    56     0     0     0
SMALL
USER_CHARGES

@<TRIPOS>ATOM
      1 C1         -0.0169    1.3937    0.0097 C.ar      1 <0>        -0.0177
      2 C2          1.1662    2.0965    0.0022 C.ar      1 <0>        -0.2041
      3 C3          2.3811    1.4169   -0.0131 C.ar      1 <0>         0.2224
      4 C4          2.4034    0.0249   -0.0208 C.ar      1 <0>        -0.2020
      5 C5          1.2237   -0.6836   -0.0138 C.ar      1 <0>        -0.0366
      6 C6          0.0021   -0.0041    0.0020 C.ar      1 <0>        -0.1648
      7 C7         -1.2644   -0.7605    0.0105 C.2       1 <0>         0.5493
      8 O1         -2.3263   -0.1682    0.0243 O.2       1 <0>        -0.5601
      9 N1         -1.2445   -2.1081    0.0031 N.am      1 <0>        -0.6791
     10 C8         -2.5022   -2.8593    0.0116 C.3       1 <0>         0.0744
     11 C9         -2.2758   -4.2399   -0.6078 C.3       1 <0>        -0.0820
     12 C10        -1.9084   -4.0824   -2.0846 C.3       1 <0>        -0.1770
     13 C11        -1.6854   -5.4422   -2.6946 C.2       1 <0>         0.4912
     14 O2         -1.8089   -6.4445   -2.0115 O.co2     1 <0>        -0.6980
     15 O3         -1.3815   -5.5401   -3.8713 O.co2     1 <0>        -0.7201
     16 C12        -2.9829   -3.0182    1.4310 C.2       1 <0>         0.4984
     17 O4         -4.1770   -3.0939    1.6654 O.co2     1 <0>        -0.7026
     18 O5         -2.1777   -3.0709    2.3450 O.co2     1 <0>        -0.6992
     19 N2          3.5749    2.1299   -0.0211 N.pl3     1 <0>        -0.7486
     20 C13         4.8542    1.4162   -0.0371 C.3       1 <0>         0.1192
     21 C14         6.0023    2.4276   -0.0432 C.3       1 <0>         0.1498
     22 C15         7.3387    1.6968   -0.2311 C.3       1 <0>        -0.1320
     23 C16         8.4726    2.7204   -0.1797 C.3       1 <0>        -0.0541
     24 C17         8.2023    3.8580   -1.1284 C.2       1 <0>         0.1103
     25 C18         6.9430    4.1349   -1.5707 C.2       1 <0>         0.0150
     26 C19         6.7441    5.2190   -2.4526 C.2       1 <0>         0.5346
     27 N3          7.8147    5.9476   -2.8348 N.am      1 <0>        -0.6437
     28 C20         9.0507    5.6226   -2.3659 C.2       1 <0>         0.5904
     29 N4          9.2267    4.6125   -1.5432 N.2       1 <0>        -0.5581
     30 N5         10.1355    6.3647   -2.7602 N.pl3     1 <0>        -0.8322
     31 O6          5.6272    5.4920   -2.8617 O.2       1 <0>        -0.5340
     32 N6          5.8411    3.3580   -1.1698 N.pl3     1 <0>        -0.7268
     33 H1         -0.9590    1.9215    0.0260 H         1 <0>         0.1329
     34 H2          1.1522    3.1764    0.0078 H         1 <0>         0.1196
     35 H3          3.3474   -0.4995   -0.0326 H         1 <0>         0.1223
     36 H4          1.2416   -1.7634   -0.0204 H         1 <0>         0.1286
     37 H5         -0.3974   -2.5806   -0.0078 H         1 <0>         0.3901
     38 H6         -3.2516   -2.3197   -0.5676 H         1 <0>         0.0768
     39 H7         -1.4645   -4.7448   -0.0833 H         1 <0>         0.0596
     40 H8         -3.1876   -4.8309   -0.5212 H         1 <0>         0.0716
     41 H9         -2.7197   -3.5775   -2.6090 H         1 <0>         0.0525
     42 H10        -0.9966   -3.4914   -2.1711 H         1 <0>         0.0515
     43 H11         3.5606    3.0997   -0.0161 H         1 <0>         0.3982
     44 H12         4.9299    0.7860    0.8490 H         1 <0>         0.0775
     45 H13         4.9126    0.7950   -0.9309 H         1 <0>         0.0695
     46 H14         6.0116    2.9817    0.8954 H         1 <0>         0.0738
     47 H15         7.4703    0.9656    0.5664 H         1 <0>         0.0889
     48 H16         7.3461    1.1918   -1.1970 H         1 <0>         0.0774
     49 H17         8.5587    3.1108    0.8344 H         1 <0>         0.0821
     50 H18         9.4080    2.2348   -0.4579 H         1 <0>         0.0895
     51 H19        10.0171    7.1122   -3.3670 H         1 <0>         0.4095
     52 H20        11.0208    6.1418   -2.4322 H         1 <0>         0.4250
     53 H21         4.9898    3.4351   -1.6284 H         1 <0>         0.4087
     54 H22         7.7039    6.6981   -3.4393 H         1 <0>         0.4122
@<TRIPOS>BOND
     1    1    6 ar
     2    1    2 ar
     3    1   33 1
     4    2    3 ar
     5    2   34 1
     6    3    4 ar
     7    3   19 1
     8    4    5 ar
     9    4   35 1
    10    5    6 ar
    11    5   36 1
    12    6    7 1
    13    7    8 2
    14    7    9 am
    15    9   10 1
    16    9   37 1
    17   10   11 1
    18   10   16 1
    19   10   38 1
    20   11   12 1
    21   11   39 1
    22   11   40 1
    23   12   13 1
    24   12   41 1
    25   12   42 1
    26   13   14 2
    27   13   15 1
    28   16   17 2
    29   16   18 1
    30   19   20 1
    31   19   43 1
    32   20   21 1
    33   20   44 1
    34   20   45 1
    35   21   32 1
    36   21   22 1
    37   21   46 1
    38   22   23 1
    39   22   47 1
    40   22   48 1
    41   23   24 1
    42   23   49 1
    43   23   50 1
    44   24   29 1
    45   24   25 2
    46   25   26 1
    47   25   32 1
    48   26   27 am
    49   26   31 2
    50   27   28 1
    51   27   54 1
    52   28   29 2
    53   28   30 1
    54   30   51 1
    55   30   52 1
    56   32   53 1
@<TRIPOS>MOLECULE
CHEMBL1093100
   38    41     0     0     0
SMALL
USER_CHARGES

@<TRIPOS>ATOM
      1 C1          1.7169    1.4131   -0.3766 C.3       1 <0>        -0.1221
      2 C2          1.4600   -0.0706   -0.3143 C.ar      1 <0>        -0.0542
      3 C3          0.1845   -0.5396   -0.0577 C.ar      1 <0>        -0.1319
      4 C4         -0.0546   -1.8983    0.0001 C.ar      1 <0>        -0.0580
      5 C5          0.9883   -2.7948   -0.1999 C.ar      1 <0>        -0.1694
      6 C6          2.2687   -2.3199   -0.4574 C.ar      1 <0>        -0.0614
      7 C7          2.4993   -0.9598   -0.5194 C.ar      1 <0>        -0.1316
      8 S1          0.6880   -4.5295   -0.1264 S.3       1 <0>         0.0160
      9 C8          1.0862   -4.9611    1.5348 C.ar      1 <0>        -0.0591
     10 C9          1.4132   -3.9740    2.4519 C.ar      1 <0>        -0.1367
     11 C10         1.7255   -4.3134    3.7572 C.ar      1 <0>        -0.0780
     12 C11         1.7163   -5.6322    4.1618 C.ar      1 <0>        -0.1275
     13 C12         1.3912   -6.6397    3.2587 C.ar      1 <0>         0.1399
     14 C13         1.0684   -6.3011    1.9367 C.ar      1 <0>        -0.0405
     15 C14         0.7708   -7.5658    1.2473 C.ar      1 <0>        -0.2878
     16 C15         0.3958   -7.9086   -0.0581 C.ar      1 <0>         0.5263
     17 N1          0.2016   -9.1920   -0.3481 N.ar      1 <0>        -0.6146
     18 C16         0.3588  -10.1295    0.5768 C.ar      1 <0>         0.6257
     19 N2          0.7114   -9.8466    1.8199 N.ar      1 <0>        -0.6144
     20 C17         0.9270   -8.5868    2.1976 C.ar      1 <0>         0.4329
     21 N3          1.3054   -8.0165    3.3886 N.pl3     1 <0>        -0.5890
     22 H1          1.4773   -8.5071    4.2075 H         1 <0>         0.4243
     23 N4          0.1456  -11.4523    0.2286 N.pl3     1 <0>        -0.8166
     24 N5          0.2306   -6.9328   -1.0252 N.pl3     1 <0>        -0.8475
     25 H2          1.5742    1.7639   -1.3987 H         1 <0>         0.0760
     26 H3          1.0223    1.9302    0.2854 H         1 <0>         0.0702
     27 H4          2.7400    1.6182   -0.0615 H         1 <0>         0.0700
     28 H5         -0.6255    0.1576    0.0979 H         1 <0>         0.1283
     29 H6         -1.0509   -2.2639    0.2008 H         1 <0>         0.1319
     30 H7          3.0816   -3.0137   -0.6133 H         1 <0>         0.1302
     31 H8          3.4932   -0.5900   -0.7238 H         1 <0>         0.1280
     32 H9          1.4246   -2.9380    2.1471 H         1 <0>         0.1278
     33 H10         1.9791   -3.5384    4.4654 H         1 <0>         0.1336
     34 H11         1.9626   -5.8836    5.1829 H         1 <0>         0.1297
     35 H12        -0.1138  -11.6794   -0.6781 H         1 <0>         0.4170
     36 H13         0.2557  -12.1521    0.8913 H         1 <0>         0.4152
     37 H14         0.9213   -6.2662   -1.1646 H         1 <0>         0.4096
     38 H15        -0.5760   -6.9153   -1.5637 H         1 <0>         0.4074
@<TRIPOS>BOND
     1    1    2 1
     2    1   25 1
     3    1   26 1
     4    1   27 1
     5    2    7 ar
     6    2    3 ar
     7    3    4 ar
     8    3   28 1
     9    4    5 ar
    10    4   29 1
    11    5    6 ar
    12    5    8 1
    13    6    7 ar
    14    6   30 1
    15    7   31 1
    16    8    9 1
    17    9   14 ar
    18    9   10 ar
    19   10   11 ar
    20   10   32 1
    21   11   12 ar
    22   11   33 1
    23   12   13 ar
    24   12   34 1
    25   13   21 1
    26   13   14 ar
    27   14   15 1
    28   15   20 ar
    29   15   16 ar
    30   16   17 ar
    31   16   24 1
    32   17   18 ar
    33   18   19 ar
    34   18   23 1
    35   19   20 ar
    36   20   21 1
    37   21   22 1
    38   23   35 1
    39   23   36 1
    40   24   37 1
    41   24   38 1
@<TRIPOS>MOLECULE
CHEMBL1093100__1
   39    42     0     0     0
SMALL
USER_CHARGES

@<TRIPOS>ATOM
      1 C1          1.7169    1.4131   -0.3766 C.3       1 <0>        -0.1279
      2 C2          1.4600   -0.0706   -0.3143 C.ar      1 <0>        -0.0402
      3 C3          0.1845   -0.5396   -0.0577 C.ar      1 <0>        -0.1297
      4 C4         -0.0546   -1.8983    0.0001 C.ar      1 <0>        -0.0541
      5 C5          0.9883   -2.7948   -0.1999 C.ar      1 <0>        -0.1775
      6 C6          2.2687   -2.3199   -0.4574 C.ar      1 <0>        -0.0587
      7 C7          2.4993   -0.9598   -0.5194 C.ar      1 <0>        -0.1297
      8 S1          0.6880   -4.5295   -0.1264 S.3       1 <0>         0.0145
      9 C8          1.0862   -4.9611    1.5348 C.ar      1 <0>        -0.0555
     10 C9          1.4132   -3.9740    2.4519 C.ar      1 <0>        -0.1129
     11 C10         1.7255   -4.3134    3.7572 C.ar      1 <0>        -0.0562
     12 C11         1.7163   -5.6322    4.1618 C.ar      1 <0>        -0.1118
     13 C12         1.3912   -6.6397    3.2587 C.ar      1 <0>         0.1312
     14 C13         1.0684   -6.3011    1.9367 C.ar      1 <0>        -0.0426
     15 C14         0.7708   -7.5658    1.2473 C.ar      1 <0>        -0.2254
     16 C15         0.3958   -7.9086   -0.0581 C.ar      1 <0>         0.5803
     17 N1          0.2016   -9.1920   -0.3481 N.ar      1 <0>        -0.5625
     18 C16         0.3588  -10.1295    0.5768 C.ar      1 <0>         0.6815
     19 N2          0.7114   -9.8466    1.8199 N.ar      1 <0>        -0.5663
     20 C17         0.9270   -8.5868    2.1976 C.ar      1 <0>         0.4013
     21 N3          1.3054   -8.0165    3.3886 N.pl3     1 <0>        -0.5577
     22 H1          1.4773   -8.5071    4.2075 H         1 <0>         0.4387
     23 N4          0.1456  -11.4523    0.2286 N.pl3     1 <0>        -0.7880
     24 N5          0.2306   -6.9328   -1.0252 N.pl3     1 <0>        -0.8133
     25 H2          1.5742    1.7639   -1.3987 H         1 <0>         0.0811
     26 H3          1.0223    1.9302    0.2854 H         1 <0>         0.0740
     27 H4          2.7400    1.6182   -0.0615 H         1 <0>         0.0737
     28 H5         -0.6255    0.1576    0.0979 H         1 <0>         0.1335
     29 H6         -1.0509   -2.2639    0.2008 H         1 <0>         0.1341
     30 H7          3.0816   -3.0137   -0.6133 H         1 <0>         0.1318
     31 H8          3.4932   -0.5900   -0.7238 H         1 <0>         0.1330
     32 H9          1.4246   -2.9380    2.1471 H         1 <0>         0.1416
     33 H10         1.9791   -3.5384    4.4654 H         1 <0>         0.1488
     34 H11         1.9626   -5.8836    5.1829 H         1 <0>         0.1429
     35 H12        -0.1138  -11.6794   -0.6781 H         1 <0>         0.4482
     36 H13         0.2557  -12.1521    0.8913 H         1 <0>         0.4296
     37 H14         0.9213   -6.2662   -1.1646 H         1 <0>         0.4263
     38 H15        -0.5760   -6.9153   -1.5637 H         1 <0>         0.4267
     39 H16         0.8143  -10.5645    2.4641 H         1 <0>         0.4371
@<TRIPOS>BOND
     1    1    2 1
     2    1   25 1
     3    1   26 1
     4    1   27 1
     5    2    7 ar
     6    2    3 ar
     7    3    4 ar
     8    3   28 1
     9    4    5 ar
    10    4   29 1
    11    5    6 ar
    12    5    8 1
    13    6    7 ar
    14    6   30 1
    15    7   31 1
    16    8    9 1
    17    9   14 ar
    18    9   10 ar
    19   10   11 ar
    20   10   32 1
    21   11   12 ar
    22   11   33 1
    23   12   13 ar
    24   12   34 1
    25   13   21 1
    26   13   14 ar
    27   14   15 1
    28   15   20 ar
    29   15   16 ar
    30   16   17 ar
    31   16   24 1
    32   17   18 ar
    33   18   19 ar
    34   18   23 1
    35   19   20 ar
    36   19   39 1
    37   20   21 1
    38   21   22 1
    39   23   35 1
    40   23   36 1
    41   24   37 1
    42   24   38 1
@<TRIPOS>MOLECULE
CHEMBL169411
   57    60     0     0     0
SMALL
USER_CHARGES

@<TRIPOS>ATOM
      1 C1         -0.0150    1.3670    0.2306 C.ar      1 <0>        -0.1162
      2 C2          1.1650    2.0818    0.2250 C.ar      1 <0>        -0.0685
      3 C3          2.3739    1.4253   -0.0111 C.ar      1 <0>        -0.0898
      4 C4          2.3802    0.0485   -0.2402 C.ar      1 <0>        -0.0835
      5 C5          1.1931   -0.6545   -0.2320 C.ar      1 <0>        -0.1052
      6 C6         -0.0018    0.0024    0.0028 C.ar      1 <0>        -0.1162
      7 C7         -1.2946   -0.7719    0.0103 C.3       1 <0>         0.1621
      8 N1         -1.7893   -0.9098   -1.3618 N.pl3     1 <0>        -0.6022
      9 C8         -1.4953   -2.1183   -2.1436 C.3       1 <0>         0.1163
     10 C9         -1.0714   -1.6747   -3.5499 C.3       1 <0>        -0.1447
     11 C10        -2.2468   -0.9630   -4.2188 C.3       1 <0>        -0.0783
     12 C11        -2.7896    0.1185   -3.3210 C.ar      1 <0>        -0.1020
     13 C12        -2.5562    0.1074   -1.9487 C.ar      1 <0>         0.2764
     14 C13        -3.0738    1.1074   -1.1386 C.ar      1 <0>        -0.1856
     15 C14        -3.8322    2.1252   -1.6943 C.ar      1 <0>         0.1386
     16 C15        -4.0747    2.1412   -3.0773 C.ar      1 <0>        -0.0068
     17 C16        -3.5384    1.1322   -3.8846 C.ar      1 <0>        -0.0380
     18 N2         -4.8353    3.2397   -3.3368 N.pl3     1 <0>        -0.5217
     19 C17        -5.0701    3.8849   -2.2225 C.cat     1 <0>         0.6396
     20 N3         -4.4733    3.2388   -1.1770 N.pl3     1 <0>        -0.5715
     21 H1         -4.4947    3.5094   -0.2457 H         1 <0>         0.4565
     22 N4         -5.8100    5.0453   -2.1191 N.pl3     1 <0>        -0.8038
     23 C18         3.6422    2.1850   -0.0189 C.2       1 <0>         0.5423
     24 O1          3.6336    3.3840    0.1805 O.2       1 <0>        -0.5532
     25 N5          4.8078    1.5481   -0.2473 N.am      1 <0>        -0.6692
     26 C19         6.0646    2.3010   -0.2550 C.3       1 <0>         0.0719
     27 C20         7.0971    1.5609   -1.1077 C.3       1 <0>        -0.0828
     28 C21         6.6314    1.5356   -2.5649 C.3       1 <0>        -0.1763
     29 C22         7.6485    0.8066   -3.4047 C.2       1 <0>         0.4900
     30 O2          8.6527    0.3497   -2.8858 O.co2     1 <0>        -0.6941
     31 O3          7.4671    0.6738   -4.6030 O.co2     1 <0>        -0.7194
     32 C23         6.5795    2.4334    1.1550 C.2       1 <0>         0.4966
     33 O4          6.0609    1.7961    2.0558 O.co2     1 <0>        -0.6987
     34 O5          7.5148    3.1779    1.3951 O.co2     1 <0>        -0.6957
     35 H2         -0.9506    1.8731    0.4175 H         1 <0>         0.1149
     36 H3          1.1533    3.1470    0.4026 H         1 <0>         0.1341
     37 H4          3.3122   -0.4654   -0.4239 H         1 <0>         0.1334
     38 H5          1.1966   -1.7198   -0.4091 H         1 <0>         0.1243
     39 H6         -1.1234   -1.7607    0.4359 H         1 <0>         0.0974
     40 H7         -2.0328   -0.2407    0.6110 H         1 <0>         0.0842
     41 H8         -0.6855   -2.6752   -1.6723 H         1 <0>         0.0934
     42 H9         -2.3863   -2.7432   -2.2065 H         1 <0>         0.0719
     43 H10        -0.2245   -0.9923   -3.4776 H         1 <0>         0.0820
     44 H11        -0.7900   -2.5476   -4.1388 H         1 <0>         0.0909
     45 H12        -1.9118   -0.5181   -5.1558 H         1 <0>         0.0883
     46 H13        -3.0346   -1.6870   -4.4265 H         1 <0>         0.0850
     47 H14        -2.8859    1.0925   -0.0752 H         1 <0>         0.1481
     48 H15        -3.7207    1.1387   -4.9491 H         1 <0>         0.1468
     49 H16        -6.2019    5.4429   -2.9123 H         1 <0>         0.4388
     50 H17        -5.9380    5.4633   -1.2532 H         1 <0>         0.4398
     51 H18         4.8146    0.5913   -0.4064 H         1 <0>         0.3902
     52 H19         5.8915    3.2925   -0.6733 H         1 <0>         0.0792
     53 H20         8.0570    2.0731   -1.0418 H         1 <0>         0.0797
     54 H21         7.2046    0.5394   -0.7428 H         1 <0>         0.0576
     55 H22         5.6716    1.0233   -2.6307 H         1 <0>         0.0476
     56 H23         6.5239    2.5570   -2.9297 H         1 <0>         0.0522
     57 H24        -5.1544    3.5043   -4.2138 H         1 <0>         0.4533
@<TRIPOS>BOND
     1    1    6 ar
     2    1    2 ar
     3    1   35 1
     4    2    3 ar
     5    2   36 1
     6    3    4 ar
     7    3   23 1
     8    4    5 ar
     9    4   37 1
    10    5    6 ar
    11    5   38 1
    12    6    7 1
    13    7    8 1
    14    7   39 1
    15    7   40 1
    16    8   13 1
    17    8    9 1
    18    9   10 1
    19    9   41 1
    20    9   42 1
    21   10   11 1
    22   10   43 1
    23   10   44 1
    24   11   12 1
    25   11   45 1
    26   11   46 1
    27   12   17 ar
    28   12   13 ar
    29   13   14 ar
    30   14   15 ar
    31   14   47 1
    32   15   20 1
    33   15   16 ar
    34   16   17 ar
    35   16   18 1
    36   17   48 1
    37   18   19 2
    38   18   57 1
    39   19   20 1
    40   19   22 1
    41   20   21 1
    42   22   49 1
    43   22   50 1
    44   23   24 2
    45   23   25 am
    46   25   26 1
    47   25   51 1
    48   26   27 1
    49   26   32 1
    50   26   52 1
    51   27   28 1
    52   27   53 1
    53   27   54 1
    54   28   29 1
    55   28   55 1
    56   28   56 1
    57   29   30 2
    58   29   31 1
    59   32   33 2
    60   32   34 1
@<TRIPOS>MOLECULE
CHEMBL169411__1
   57    60     0     0     0
SMALL
USER_CHARGES

@<TRIPOS>ATOM
      1 C1         -0.0150    1.3670    0.2306 C.ar      1 <0>        -0.1163
      2 C2          1.1650    2.0818    0.2250 C.ar      1 <0>        -0.0682
      3 C3          2.3739    1.4253   -0.0111 C.ar      1 <0>        -0.0916
      4 C4          2.3802    0.0485   -0.2402 C.ar      1 <0>        -0.0831
      5 C5          1.1931   -0.6545   -0.2320 C.ar      1 <0>        -0.1051
      6 C6         -0.0018    0.0024    0.0028 C.ar      1 <0>        -0.1156
      7 C7         -1.2946   -0.7719    0.0103 C.3       1 <0>         0.1620
      8 N1         -1.7893   -0.9098   -1.3618 N.pl3     1 <0>        -0.6024
      9 C8         -1.4953   -2.1183   -2.1436 C.3       1 <0>         0.1164
     10 C9         -1.0714   -1.6747   -3.5499 C.3       1 <0>        -0.1448
     11 C10        -2.2468   -0.9630   -4.2188 C.3       1 <0>        -0.0781
     12 C11        -2.7896    0.1185   -3.3210 C.ar      1 <0>        -0.1021
     13 C12        -2.5562    0.1074   -1.9487 C.ar      1 <0>         0.2763
     14 C13        -3.0738    1.1074   -1.1386 C.ar      1 <0>        -0.1854
     15 C14        -3.8322    2.1252   -1.6943 C.ar      1 <0>         0.1387
     16 C15        -4.0747    2.1412   -3.0773 C.ar      1 <0>        -0.0065
     17 C16        -3.5384    1.1322   -3.8846 C.ar      1 <0>        -0.0378
     18 N2         -4.8353    3.2397   -3.3368 N.pl3     1 <0>        -0.5217
     19 C17        -5.0701    3.8849   -2.2225 C.cat     1 <0>         0.6399
     20 N3         -4.4733    3.2388   -1.1770 N.pl3     1 <0>        -0.5715
     21 H1         -4.4947    3.5094   -0.2457 H         1 <0>         0.4564
     22 N4         -5.8100    5.0453   -2.1191 N.pl3     1 <0>        -0.8037
     23 C18         3.6422    2.1850   -0.0189 C.2       1 <0>         0.5376
     24 O1          3.6336    3.3840    0.1805 O.2       1 <0>        -0.5510
     25 N5          4.8078    1.5481   -0.2473 N.am      1 <0>        -0.6698
     26 C19         6.0646    2.3010   -0.2550 C.3       1 <0>         0.0725
     27 C20         7.2232    1.3628    0.0887 C.3       1 <0>        -0.0836
     28 C21         7.0624    0.8585    1.5243 C.3       1 <0>        -0.1769
     29 C22         8.2036   -0.0656    1.8629 C.2       1 <0>         0.4902
     30 O2          9.0657   -0.2992    1.0330 O.co2     1 <0>        -0.6956
     31 O3          8.2648   -0.5797    2.9668 O.co2     1 <0>        -0.7178
     32 C23         6.2868    2.8934   -1.6228 C.2       1 <0>         0.4987
     33 O4          6.9010    3.9399   -1.7414 O.co2     1 <0>        -0.6967
     34 O5          5.8523    2.3262   -2.6107 O.co2     1 <0>        -0.7003
     35 H2         -0.9506    1.8731    0.4175 H         1 <0>         0.1151
     36 H3          1.1533    3.1470    0.4026 H         1 <0>         0.1343
     37 H4          3.3122   -0.4654   -0.4239 H         1 <0>         0.1341
     38 H5          1.1966   -1.7198   -0.4091 H         1 <0>         0.1247
     39 H6         -1.1234   -1.7607    0.4359 H         1 <0>         0.0976
     40 H7         -2.0328   -0.2407    0.6110 H         1 <0>         0.0843
     41 H8         -0.6855   -2.6752   -1.6723 H         1 <0>         0.0934
     42 H9         -2.3863   -2.7432   -2.2065 H         1 <0>         0.0719
     43 H10        -0.2245   -0.9923   -3.4776 H         1 <0>         0.0822
     44 H11        -0.7900   -2.5476   -4.1388 H         1 <0>         0.0904
     45 H12        -1.9118   -0.5181   -5.1558 H         1 <0>         0.0881
     46 H13        -3.0346   -1.6870   -4.4265 H         1 <0>         0.0849
     47 H14        -2.8859    1.0925   -0.0752 H         1 <0>         0.1480
     48 H15        -3.7207    1.1387   -4.9491 H         1 <0>         0.1468
     49 H16        -6.2019    5.4429   -2.9123 H         1 <0>         0.4388
     50 H17        -5.9380    5.4633   -1.2532 H         1 <0>         0.4398
     51 H18         4.8146    0.5913   -0.4064 H         1 <0>         0.3916
     52 H19         6.0135    3.1010    0.4835 H         1 <0>         0.0794
     53 H20         7.2201    0.5152   -0.5966 H         1 <0>         0.0610
     54 H21         8.1664    1.9012   -0.0037 H         1 <0>         0.0752
     55 H22         7.0656    1.7060    2.2096 H         1 <0>         0.0531
     56 H23         6.1192    0.3200    1.6167 H         1 <0>         0.0489
     57 H24        -5.1544    3.5043   -4.2138 H         1 <0>         0.4533
@<TRIPOS>BOND
     1    1    6 ar
     2    1    2 ar
     3    1   35 1
     4    2    3 ar
     5    2   36 1
     6    3    4 ar
     7    3   23 1
     8    4    5 ar
     9    4   37 1
    10    5    6 ar
    11    5   38 1
    12    6    7 1
    13    7    8 1
    14    7   39 1
    15    7   40 1
    16    8   13 1
    17    8    9 1
    18    9   10 1
    19    9   41 1
    20    9   42 1
    21   10   11 1
    22   10   43 1
    23   10   44 1
    24   11   12 1
    25   11   45 1
    26   11   46 1
    27   12   17 ar
    28   12   13 ar
    29   13   14 ar
    30   14   15 ar
    31   14   47 1
    32   15   20 1
    33   15   16 ar
    34   16   17 ar
    35   16   18 1
    36   17   48 1
    37   18   19 2
    38   18   57 1
    39   19   20 1
    40   19   22 1
    41   20   21 1
    42   22   49 1
    43   22   50 1
    44   23   24 2
    45   23   25 am
    46   25   26 1
    47   25   51 1
    48   26   27 1
    49   26   32 1
    50   26   52 1
    51   27   28 1
    52   27   53 1
    53   27   54 1
    54   28   29 1
    55   28   55 1
    56   28   56 1
    57   29   30 2
    58   29   31 1
    59   32   33 2
    60   32   34 1
@<TRIPOS>MOLECULE
CHEMBL138915
   68    71     0     0     0
SMALL
USER_CHARGES

@<TRIPOS>ATOM
      1 C1         -0.0178    1.4608    0.0101 C.3       1 <0>         0.0942
      2 N1          0.0021   -0.0041    0.0020 N.pl3     1 <0>        -1.0686
      3 C2          0.0241   -0.7433    1.2666 C.3       1 <0>         0.1124
      4 C3         -1.3640   -0.6973    1.9085 C.3       1 <0>        -0.1429
      5 C4         -1.3409   -1.4694    3.2293 C.3       1 <0>        -0.1303
      6 C5         -2.7290   -1.4234    3.8711 C.3       1 <0>        -0.0340
      7 Cl1        -2.7019   -2.3332    5.4275 Cl        1 <0>        -0.1824
      8 P1         -0.0004   -0.8164   -1.4227 P.3       1 <0>         2.4995
      9 O1         -0.0241    0.1513   -2.5423 O.2       1 <0>        -1.0531
     10 O2          1.3258   -1.7235   -1.5255 O.3       1 <0>        -0.7496
     11 C6          2.6337   -1.1735   -1.6951 C.3       1 <0>         0.1337
     12 C7          3.6598   -2.3069   -1.7543 C.3       1 <0>         0.0767
     13 C8          5.0799   -1.7348   -1.9926 C.3       1 <0>         0.0803
     14 C9          5.9580   -2.8642   -1.3881 C.3       1 <0>        -0.1991
     15 C10         5.0865   -3.3652   -0.2164 C.3       1 <0>         0.2969
     16 O3          3.7340   -2.9790   -0.4870 O.3       1 <0>        -0.3505
     17 N2          5.1767   -4.8241   -0.1182 N.am      1 <0>        -0.5256
     18 C11         4.6945   -5.6043   -1.1370 C.2       1 <0>         0.1438
     19 C12         4.7781   -6.9493   -1.0455 C.2       1 <0>        -0.0646
     20 C13         5.3658   -7.5263    0.1081 C.2       1 <0>         0.5414
     21 O4          5.4528   -8.7365    0.2134 O.2       1 <0>        -0.4847
     22 N3          5.8279   -6.7232    1.0876 N.am      1 <0>        -0.6478
     23 H1          6.2312   -7.1110    1.8799 H         1 <0>         0.4408
     24 C14         5.7370   -5.3856    0.9684 C.2       1 <0>         0.7036
     25 O5          6.1631   -4.6745    1.8580 O.2       1 <0>        -0.5271
     26 F1          4.3077   -7.7338   -2.0397 F         1 <0>        -0.0983
     27 O6          5.3414   -1.5700   -3.3878 O.3       1 <0>        -0.5444
     28 O7         -1.3030   -1.7593   -1.5006 O.3       1 <0>        -0.7574
     29 C15        -2.6162   -1.2535   -1.7488 C.3       1 <0>         0.1708
     30 C16        -3.6007   -2.3945   -1.7578 C.2       1 <0>        -0.1375
     31 C17        -3.1661   -3.6436   -1.5441 C.2       1 <0>        -0.1127
     32 C18        -4.1033   -4.7829   -1.5463 C.2       1 <0>         0.4126
     33 O8         -3.6936   -5.9097   -1.3505 O.2       1 <0>        -0.4150
     34 C19        -5.5433   -4.5481   -1.7872 C.ar      1 <0>        -0.1259
     35 C20        -6.4470   -5.6038   -1.7939 C.ar      1 <0>        -0.0660
     36 C21        -7.7921   -5.3572   -2.0217 C.ar      1 <0>        -0.0953
     37 C22        -8.2402   -4.0689   -2.2422 C.ar      1 <0>        -0.0979
     38 C23        -7.3509   -3.0055   -2.2385 C.ar      1 <0>        -0.0637
     39 C24        -5.9995   -3.2368   -2.0115 C.ar      1 <0>        -0.1250
     40 C25        -5.0304   -2.1199   -1.9958 C.2       1 <0>         0.4297
     41 O9         -5.4095   -0.9810   -2.1831 O.2       1 <0>        -0.4190
     42 H2          1.0048    1.8381    0.0023 H         1 <0>         0.0515
     43 H3         -0.5450    1.8219   -0.8730 H         1 <0>         0.0832
     44 H4         -0.5280    1.8123    0.9069 H         1 <0>         0.0668
     45 H5          0.3025   -1.7799    1.0767 H         1 <0>         0.0745
     46 H6          0.7511   -0.2895    1.9402 H         1 <0>         0.0790
     47 H7         -1.6423    0.3393    2.0984 H         1 <0>         0.0759
     48 H8         -2.0909   -1.1512    1.2350 H         1 <0>         0.0672
     49 H9         -1.0626   -2.5060    3.0394 H         1 <0>         0.0780
     50 H10        -0.6140   -1.0155    3.9028 H         1 <0>         0.0797
     51 H11        -3.0073   -0.3868    4.0610 H         1 <0>         0.0934
     52 H12        -3.4560   -1.8772    3.1976 H         1 <0>         0.0918
     53 H13         2.6700   -0.6018   -2.6224 H         1 <0>         0.0999
     54 H14         2.8641   -0.5184   -0.8550 H         1 <0>         0.0705
     55 H15         3.3976   -3.0130   -2.5422 H         1 <0>         0.1048
     56 H16         5.2210   -0.7972   -1.4550 H         1 <0>         0.0930
     57 H17         6.1233   -3.6587   -2.1159 H         1 <0>         0.1031
     58 H18         6.9054   -2.4665   -1.0245 H         1 <0>         0.1110
     59 H19         5.4219   -2.9093    0.7151 H         1 <0>         0.1499
     60 H20         4.2498   -5.1460   -2.0079 H         1 <0>         0.1860
     61 H21         6.2189   -1.2144   -3.5842 H         1 <0>         0.3941
     62 H22        -2.8872   -0.5460   -0.9651 H         1 <0>         0.0868
     63 H23        -2.6350   -0.7498   -2.7152 H         1 <0>         0.1047
     64 H24        -2.1150   -3.8190   -1.3681 H         1 <0>         0.1666
     65 H25        -6.1026   -6.6130   -1.6225 H         1 <0>         0.1449
     66 H26        -8.4944   -6.1776   -2.0273 H         1 <0>         0.1401
     67 H27        -9.2904   -3.8893   -2.4189 H         1 <0>         0.1404
     68 H28        -7.7071   -2.0007   -2.4118 H         1 <0>         0.1454
@<TRIPOS>BOND
     1    1    2 1
     2    1   42 1
     3    1   43 1
     4    1   44 1
     5    2    3 1
     6    2    8 1
     7    3    4 1
     8    3   45 1
     9    3   46 1
    10    4    5 1
    11    4   47 1
    12    4   48 1
    13    5    6 1
    14    5   49 1
    15    5   50 1
    16    6    7 1
    17    6   51 1
    18    6   52 1
    19    8    9 2
    20    8   10 1
    21    8   28 1
    22   10   11 1
    23   11   12 1
    24   11   53 1
    25   11   54 1
    26   12   16 1
    27   12   13 1
    28   12   55 1
    29   13   14 1
    30   13   27 1
    31   13   56 1
    32   14   15 1
    33   14   57 1
    34   14   58 1
    35   15   16 1
    36   15   17 1
    37   15   59 1
    38   17   24 am
    39   17   18 1
    40   18   19 2
    41   18   60 1
    42   19   20 1
    43   19   26 1
    44   20   21 2
    45   20   22 am
    46   22   23 1
    47   22   24 am
    48   24   25 2
    49   27   61 1
    50   28   29 1
    51   29   30 1
    52   29   62 1
    53   29   63 1
    54   30   40 1
    55   30   31 2
    56   31   32 1
    57   31   64 1
    58   32   33 2
    59   32   34 1
    60   34   39 ar
    61   34   35 ar
    62   35   36 ar
    63   35   65 1
    64   36   37 ar
    65   36   66 1
    66   37   38 ar
    67   37   67 1
    68   38   39 ar
    69   38   68 1
    70   39   40 1
    71   40   41 2
@<TRIPOS>MOLECULE
CHEMBL126555
   61    64     0     0     0
SMALL
USER_CHARGES

@<TRIPOS>ATOM
      1 C1         -3.0009   -0.8810   -1.3772 C.3       1 <0>        -0.1231
      2 C2         -2.3070    0.3696   -1.8521 C.ar      1 <0>        -0.0313
      3 C3         -1.6097    0.3513   -3.0394 C.ar      1 <0>        -0.1111
      4 C4         -0.9665    1.5088   -3.4814 C.ar      1 <0>         0.1567
      5 C5         -1.0419    2.6838   -2.7006 C.ar      1 <0>        -0.2013
      6 C6         -1.7525    2.6812   -1.5025 C.ar      1 <0>        -0.0169
      7 C7         -2.3834    1.5276   -1.0898 C.ar      1 <0>        -0.1297
      8 C8         -3.1585    1.5215    0.2025 C.3       1 <0>         0.1679
      9 N1         -3.0305    2.8269    0.8549 N.pl3     1 <0>        -0.6176
     10 C9         -3.9908    3.8923    0.5564 C.3       1 <0>         0.2280
     11 C10        -5.1223    3.8098    1.4943 C.1       1 <0>        -0.2077
     12 C11        -6.0248    3.7441    2.2423 C.1       1 <0>        -0.1858
     13 C12        -1.9976    3.0548    1.7575 C.ar      1 <0>         0.2491
     14 C13        -1.0184    2.0833    1.9523 C.ar      1 <0>        -0.2039
     15 C14        -0.0009    2.2994    2.8367 C.ar      1 <0>        -0.0034
     16 C15         0.0632    3.4995    3.5519 C.ar      1 <0>        -0.1988
     17 C16        -0.9193    4.4788    3.3584 C.ar      1 <0>         0.2011
     18 C17        -1.9417    4.2544    2.4590 C.ar      1 <0>        -0.2418
     19 F1         -0.8636    5.6405    4.0459 F         1 <0>        -0.1144
     20 C18         1.1611    3.7328    4.5069 C.2       1 <0>         0.5620
     21 O1          1.2151    4.7769    5.1280 O.2       1 <0>        -0.5456
     22 N2          2.1052    2.7889    4.6920 N.am      1 <0>        -0.6873
     23 C19         3.1966    3.0208    5.6414 C.3       1 <0>         0.1011
     24 H1          3.4721    4.0753    5.6277 H         1 <0>         0.0932
     25 C20         4.4065    2.1724    5.2447 C.3       1 <0>        -0.4395
     26 S1          5.0389    2.7341    3.6400 S.o       1 <0>         1.3841
     27 O2          4.1070    2.4002    2.6205 O.2       1 <0>        -0.8556
     28 C21         6.4107    1.6734    3.3275 C.2       1 <0>        -0.2682
     29 N3          6.3818    0.5104    2.6931 N.2       1 <0>        -0.3329
     30 N4          7.5852    0.0481    2.6716 N.2       1 <0>        -0.2009
     31 N5          8.3648    0.8802    3.2698 N.2       1 <0>        -0.1966
     32 N6          7.6708    1.8878    3.6767 N.2       1 <0>        -0.3261
     33 C22         2.7467    2.6371    7.0275 C.2       1 <0>         0.5021
     34 O3          1.6937    2.0428    7.1840 O.co2     1 <0>        -0.6894
     35 O4          3.4357    2.9210    7.9925 O.co2     1 <0>        -0.6957
     36 C23        -0.3530    3.8856   -3.1940 C.2       1 <0>         0.5497
     37 N7          0.3105    3.7850   -4.3693 N.am      1 <0>        -0.6543
     38 C24         0.3296    2.6121   -5.0548 C.2       1 <0>         0.3935
     39 N8         -0.2684    1.5353   -4.6443 N.2       1 <0>        -0.5224
     40 C25         1.0839    2.5582   -6.3583 C.3       1 <0>        -0.1100
     41 O5         -0.3789    4.9304   -2.5699 O.2       1 <0>        -0.5036
     42 H2         -4.0506   -0.8471   -1.6690 H         1 <0>         0.0771
     43 H3         -2.5266   -1.7530   -1.8274 H         1 <0>         0.0732
     44 H4         -2.9275   -0.9474   -0.2917 H         1 <0>         0.0758
     45 H5         -1.5604   -0.5544   -3.6257 H         1 <0>         0.1388
     46 H6         -1.8119    3.5778   -0.9034 H         1 <0>         0.1423
     47 H7         -4.2095    1.3205   -0.0051 H         1 <0>         0.0915
     48 H8         -2.7633    0.7467    0.8595 H         1 <0>         0.0984
     49 H9         -3.5025    4.8612    0.6605 H         1 <0>         0.1036
     50 H10        -4.3557    3.7770   -0.4642 H         1 <0>         0.0988
     51 H11        -6.8320    3.6853    2.9112 H         1 <0>         0.2156
     52 H12        -1.0645    1.1553    1.4018 H         1 <0>         0.1296
     53 H13         0.7552    1.5425    2.9843 H         1 <0>         0.1381
     54 H14        -2.6996    5.0078    2.3029 H         1 <0>         0.1354
     55 H15         2.0620    1.9561    4.1966 H         1 <0>         0.3948
     56 H16         5.1862    2.2765    5.9992 H         1 <0>         0.1291
     57 H17         4.1086    1.1264    5.1720 H         1 <0>         0.0816
     58 H18         2.1163    2.2645   -6.1687 H         1 <0>         0.0992
     59 H19         0.6146    1.8299   -7.0198 H         1 <0>         0.1019
     60 H20         1.0664    3.5410   -6.8292 H         1 <0>         0.0845
     61 H21         0.7766    4.5574   -4.7257 H         1 <0>         0.4174
@<TRIPOS>BOND
     1    1   42 1
     2    1   43 1
     3    1   44 1
     4    1    2 1
     5    2    7 ar
     6    2    3 ar
     7    3   45 1
     8    3    4 ar
     9    4    5 ar
    10    4   39 1
    11    5   36 1
    12    5    6 ar
    13    6   46 1
    14    6    7 ar
    15    7    8 1
    16    8    9 1
    17    8   47 1
    18    8   48 1
    19    9   10 1
    20    9   13 1
    21   10   11 1
    22   10   49 1
    23   10   50 1
    24   11   12 3
    25   12   51 1
    26   13   18 ar
    27   13   14 ar
    28   14   15 ar
    29   14   52 1
    30   15   16 ar
    31   15   53 1
    32   16   17 ar
    33   16   20 1
    34   17   18 ar
    35   17   19 1
    36   18   54 1
    37   20   21 2
    38   20   22 am
    39   22   23 1
    40   22   55 1
    41   23   24 1
    42   23   25 1
    43   23   33 1
    44   25   26 1
    45   25   56 1
    46   25   57 1
    47   26   27 2
    48   26   28 1
    49   28   29 2
    50   28   32 1
    51   29   30 1
    52   30   31 2
    53   31   32 1
    54   33   34 2
    55   33   35 1
    56   36   41 2
    57   36   37 am
    58   37   38 1
    59   37   61 1
    60   38   39 2
    61   38   40 1
    62   40   58 1
    63   40   59 1
    64   40   60 1
@<TRIPOS>MOLECULE
CHEMBL126555__1
   61    64     0     0     0
SMALL
USER_CHARGES

@<TRIPOS>ATOM
      1 C1         -3.0009   -0.8810   -1.3772 C.3       1 <0>        -0.1236
      2 C2         -2.3070    0.3696   -1.8521 C.ar      1 <0>        -0.0305
      3 C3         -1.6097    0.3513   -3.0394 C.ar      1 <0>        -0.1109
      4 C4         -0.9665    1.5088   -3.4814 C.ar      1 <0>         0.1574
      5 C5         -1.0419    2.6838   -2.7006 C.ar      1 <0>        -0.2016
      6 C6         -1.7525    2.6812   -1.5025 C.ar      1 <0>        -0.0174
      7 C7         -2.3834    1.5276   -1.0898 C.ar      1 <0>        -0.1298
      8 C8         -3.1585    1.5215    0.2025 C.3       1 <0>         0.1675
      9 N1         -3.0305    2.8269    0.8549 N.pl3     1 <0>        -0.6172
     10 C9         -3.9908    3.8923    0.5564 C.3       1 <0>         0.2278
     11 C10        -5.1223    3.8098    1.4943 C.1       1 <0>        -0.2091
     12 C11        -6.0248    3.7441    2.2423 C.1       1 <0>        -0.1844
     13 C12        -1.9976    3.0548    1.7575 C.ar      1 <0>         0.2499
     14 C13        -1.0184    2.0833    1.9523 C.ar      1 <0>        -0.2038
     15 C14        -0.0009    2.2994    2.8367 C.ar      1 <0>        -0.0106
     16 C15         0.0632    3.4995    3.5519 C.ar      1 <0>        -0.2010
     17 C16        -0.9193    4.4788    3.3584 C.ar      1 <0>         0.2028
     18 C17        -1.9417    4.2544    2.4590 C.ar      1 <0>        -0.2407
     19 F1         -0.8636    5.6405    4.0459 F         1 <0>        -0.1139
     20 C18         1.1611    3.7328    4.5069 C.2       1 <0>         0.5581
     21 O1          1.2151    4.7769    5.1280 O.2       1 <0>        -0.5371
     22 N2          2.1052    2.7889    4.6920 N.am      1 <0>        -0.6925
     23 C19         3.1966    3.0208    5.6414 C.3       1 <0>         0.1033
     24 H1          3.4721    4.0753    5.6277 H         1 <0>         0.0885
     25 C20         4.4065    2.1724    5.2447 C.3       1 <0>        -0.4411
     26 S1          5.0389    2.7341    3.6400 S.o       1 <0>         1.3816
     27 O2          5.6250    4.0203    3.7857 O.2       1 <0>        -0.8553
     28 C21         6.4107    1.6734    3.3275 C.2       1 <0>        -0.2694
     29 N3          6.3818    0.5104    2.6931 N.2       1 <0>        -0.3276
     30 N4          7.5852    0.0481    2.6716 N.2       1 <0>        -0.1964
     31 N5          8.3648    0.8802    3.2698 N.2       1 <0>        -0.1993
     32 N6          7.6708    1.8878    3.6767 N.2       1 <0>        -0.3302
     33 C22         2.7467    2.6371    7.0275 C.2       1 <0>         0.5022
     34 O3          1.6937    2.0428    7.1840 O.co2     1 <0>        -0.6884
     35 O4          3.4357    2.9210    7.9925 O.co2     1 <0>        -0.6965
     36 C23        -0.3530    3.8856   -3.1940 C.2       1 <0>         0.5491
     37 N7          0.3105    3.7850   -4.3693 N.am      1 <0>        -0.6546
     38 C24         0.3296    2.6121   -5.0548 C.2       1 <0>         0.3946
     39 N8         -0.2684    1.5353   -4.6443 N.2       1 <0>        -0.5228
     40 C25         1.0839    2.5582   -6.3583 C.3       1 <0>        -0.1108
     41 O5         -0.3789    4.9304   -2.5699 O.2       1 <0>        -0.5035
     42 H2         -4.0506   -0.8471   -1.6690 H         1 <0>         0.0767
     43 H3         -2.5266   -1.7530   -1.8274 H         1 <0>         0.0734
     44 H4         -2.9275   -0.9474   -0.2917 H         1 <0>         0.0763
     45 H5         -1.5604   -0.5544   -3.6257 H         1 <0>         0.1388
     46 H6         -1.8119    3.5778   -0.9034 H         1 <0>         0.1424
     47 H7         -4.2095    1.3205   -0.0051 H         1 <0>         0.0913
     48 H8         -2.7633    0.7467    0.8595 H         1 <0>         0.0995
     49 H9         -3.5025    4.8612    0.6605 H         1 <0>         0.1037
     50 H10        -4.3557    3.7770   -0.4642 H         1 <0>         0.0990
     51 H11        -6.8320    3.6853    2.9112 H         1 <0>         0.2155
     52 H12        -1.0645    1.1553    1.4018 H         1 <0>         0.1323
     53 H13         0.7552    1.5425    2.9843 H         1 <0>         0.1424
     54 H14        -2.6996    5.0078    2.3029 H         1 <0>         0.1353
     55 H15         2.0620    1.9561    4.1966 H         1 <0>         0.3925
     56 H16         5.1862    2.2765    5.9992 H         1 <0>         0.1030
     57 H17         4.1086    1.1264    5.1720 H         1 <0>         0.1113
     58 H18         2.1163    2.2645   -6.1687 H         1 <0>         0.0997
     59 H19         0.6146    1.8299   -7.0198 H         1 <0>         0.1019
     60 H20         1.0664    3.5410   -6.8292 H         1 <0>         0.0844
     61 H21         0.7766    4.5574   -4.7257 H         1 <0>         0.4176
@<TRIPOS>BOND
     1    1   42 1
     2    1   43 1
     3    1   44 1
     4    1    2 1
     5    2    7 ar
     6    2    3 ar
     7    3   45 1
     8    3    4 ar
     9    4    5 ar
    10    4   39 1
    11    5   36 1
    12    5    6 ar
    13    6   46 1
    14    6    7 ar
    15    7    8 1
    16    8    9 1
    17    8   47 1
    18    8   48 1
    19    9   10 1
    20    9   13 1
    21   10   11 1
    22   10   49 1
    23   10   50 1
    24   11   12 3
    25   12   51 1
    26   13   18 ar
    27   13   14 ar
    28   14   15 ar
    29   14   52 1
    30   15   16 ar
    31   15   53 1
    32   16   17 ar
    33   16   20 1
    34   17   18 ar
    35   17   19 1
    36   18   54 1
    37   20   21 2
    38   20   22 am
    39   22   23 1
    40   22   55 1
    41   23   24 1
    42   23   25 1
    43   23   33 1
    44   25   26 1
    45   25   56 1
    46   25   57 1
    47   26   27 2
    48   26   28 1
    49   28   29 2
    50   28   32 1
    51   29   30 1
    52   30   31 2
    53   31   32 1
    54   33   34 2
    55   33   35 1
    56   36   41 2
    57   36   37 am
    58   37   38 1
    59   37   61 1
    60   38   39 2
    61   38   40 1
    62   40   58 1
    63   40   59 1
    64   40   60 1
@<TRIPOS>MOLECULE
CHEMBL219544
   17    18     0     0     0
SMALL
USER_CHARGES

@<TRIPOS>ATOM
      1 C1         -0.0184    1.5054    0.0103 C.3       1 <0>        -0.0959
      2 C2          1.4540    1.8671   -0.0018 C.2       1 <0>         0.1940
      3 N1          2.1224    0.7667   -0.0141 N.2       1 <0>        -0.4814
      4 C3          1.3477   -0.3543   -0.0127 C.2       1 <0>         0.3807
      5 C4          0.0021   -0.0041    0.0020 C.2       1 <0>        -0.3786
      6 C5         -0.9772   -0.9935    0.0057 C.2       1 <0>         0.5742
      7 O1         -2.1617   -0.6996    0.0181 O.2       1 <0>        -0.5356
      8 N2         -0.5854   -2.2880   -0.0054 N.am      1 <0>        -0.6536
      9 H1         -1.2474   -2.9970   -0.0035 H         1 <0>         0.4176
     10 C6          0.7412   -2.5922   -0.0197 C.2       1 <0>         0.6548
     11 N3          1.6691   -1.6613   -0.0232 N.2       1 <0>        -0.5724
     12 N4          1.1207   -3.9082   -0.0308 N.pl3     1 <0>        -0.8156
     13 H2         -0.4997    1.8793    0.9140 H         1 <0>         0.1263
     14 H3         -0.5168    1.8889   -0.8799 H         1 <0>         0.1263
     15 H4          1.8666    2.8651   -0.0007 H         1 <0>         0.2096
     16 H5          0.4480   -4.6070   -0.0284 H         1 <0>         0.4179
     17 H6          2.0622   -4.1414   -0.0410 H         1 <0>         0.4317
@<TRIPOS>BOND
     1    1    5 1
     2    1    2 1
     3    1   13 1
     4    1   14 1
     5    2    3 2
     6    2   15 1
     7    3    4 1
     8    4   11 1
     9    4    5 2
    10    5    6 1
    11    6    7 2
    12    6    8 am
    13    8    9 1
    14    8   10 1
    15   10   11 2
    16   10   12 1
    17   12   16 1
    18   12   17 1
@<TRIPOS>MOLECULE
CHEMBL163990
   73    77     0     0     0
SMALL
USER_CHARGES

@<TRIPOS>ATOM
      1 C1          0.0180   -1.1779   -0.0044 C.1       1 <0>        -0.1593
      2 C2          0.0021   -0.0041    0.0020 C.1       1 <0>        -0.2319
      3 C3         -0.0179    1.4678    0.0101 C.3       1 <0>         0.2332
      4 N1          1.3565    1.9749   -0.0003 N.pl3     1 <0>        -0.6118
      5 C4          2.0316    2.2352   -1.2741 C.3       1 <0>         0.1540
      6 C5          1.7714    3.6575   -1.6991 C.ar      1 <0>        -0.1020
      7 C6          0.6636    3.9497   -2.4842 C.ar      1 <0>        -0.0565
      8 C7          0.4041    5.2407   -2.8853 C.ar      1 <0>        -0.0964
      9 C8          1.2642    6.2709   -2.4991 C.ar      1 <0>         0.1384
     10 C9          2.3898    5.9701   -1.7007 C.ar      1 <0>        -0.1757
     11 C10         2.6313    4.6574   -1.3008 C.ar      1 <0>        -0.0256
     12 C11         3.2758    7.0773   -1.3117 C.2       1 <0>         0.5522
     13 N2          2.9516    8.3171   -1.7470 N.am      1 <0>        -0.6437
     14 C12         1.8471    8.5143   -2.5131 C.2       1 <0>         0.3574
     15 N3          1.0468    7.5569   -2.8720 N.2       1 <0>        -0.5246
     16 C13         1.5343    9.9162   -2.9691 C.3       1 <0>         0.0503
     17 N4          0.3085    9.9058   -3.7785 N.4       1 <0>        -0.3733
     18 C14         0.5443    9.1531   -5.0289 C.3       1 <0>        -0.0013
     19 C15        -0.2767    9.9065   -6.1050 C.3       1 <0>        -0.1820
     20 C16        -0.0877   11.3827   -5.6667 C.3       1 <0>         0.0929
     21 C17        -0.0680   11.2882   -4.1265 C.3       1 <0>        -0.0110
     22 O1         -1.1837   12.1856   -6.1097 O.3       1 <0>        -0.5480
     23 O2          4.2622    6.8862   -0.6245 O.2       1 <0>        -0.4727
     24 C18         2.0203    2.2090    1.1989 C.ar      1 <0>         0.2423
     25 C19         3.3243    2.6963    1.1874 C.ar      1 <0>        -0.2072
     26 C20         3.9839    2.9291    2.3725 C.ar      1 <0>        -0.0044
     27 C21         3.3431    2.6757    3.5888 C.ar      1 <0>        -0.1927
     28 C22         2.0335    2.1865    3.5970 C.ar      1 <0>        -0.0335
     29 C23         1.3773    1.9611    2.4086 C.ar      1 <0>        -0.1987
     30 C24         4.0474    2.9237    4.8610 C.2       1 <0>         0.5658
     31 O3          5.1866    3.3489    4.8524 O.2       1 <0>        -0.5361
     32 N5          3.4283    2.6790    6.0329 N.am      1 <0>        -0.7295
     33 C25         4.1278    2.9253    7.2963 C.3       1 <0>         0.1627
     34 C26         3.2223    2.5739    8.4486 C.ar      1 <0>        -0.1093
     35 C27         2.3843    3.5330    8.9866 C.ar      1 <0>        -0.0506
     36 C28         1.5538    3.2107   10.0434 C.ar      1 <0>        -0.1158
     37 C29         1.5608    1.9292   10.5622 C.ar      1 <0>        -0.0464
     38 C30         2.3979    0.9702   10.0238 C.ar      1 <0>        -0.0483
     39 C31         3.2255    1.2914    8.9639 C.ar      1 <0>        -0.0376
     40 N6          2.4058   -0.4016   10.5796 N.pl3     1 <0>         0.0301
     41 O4          1.6800   -0.6832   11.5046 O.2       1 <0>        -0.1515
     42 O5          3.1381   -1.2404   10.1087 O.3       1 <0>        -0.1530
     43 H1          0.0322   -2.2278   -0.0102 H         1 <0>         0.2191
     44 H2         -0.5451    1.8289   -0.8729 H         1 <0>         0.0985
     45 H3         -0.5281    1.8193    0.9069 H         1 <0>         0.1024
     46 H4          3.1042    2.0821   -1.1549 H         1 <0>         0.0967
     47 H5          1.6495    1.5533   -2.0338 H         1 <0>         0.0977
     48 H6         -0.0024    3.1541   -2.7840 H         1 <0>         0.1421
     49 H7         -0.4602    5.4558   -3.4960 H         1 <0>         0.1445
     50 H8          3.4885    4.4248   -0.6864 H         1 <0>         0.1478
     51 H9          1.3902   10.5574   -2.0995 H         1 <0>         0.1640
     52 H10         2.3619   10.2966   -3.5679 H         1 <0>         0.1628
     53 H11         1.6040    9.1634   -5.2840 H         1 <0>         0.1289
     54 H12         0.1873    8.1282   -4.9280 H         1 <0>         0.1504
     55 H13         0.1362    9.7387   -7.0997 H         1 <0>         0.1205
     56 H14        -1.3275    9.6193   -6.0666 H         1 <0>         0.1092
     57 H15         0.8568   11.7779   -6.0407 H         1 <0>         0.0983
     58 H16        -1.0571   11.5146   -3.7285 H         1 <0>         0.1481
     59 H17         0.6655   11.9854   -3.7216 H         1 <0>         0.1439
     60 H18        -1.2864   12.2152   -7.0707 H         1 <0>         0.4060
     61 H19         3.5129    9.0718   -1.5097 H         1 <0>         0.4256
     62 H20         3.8190    2.8915    0.2474 H         1 <0>         0.1280
     63 H21         4.9956    3.3068    2.3629 H         1 <0>         0.1378
     64 H22         1.5360    1.9894    4.5351 H         1 <0>         0.1242
     65 H23         0.3640    1.5876    2.4143 H         1 <0>         0.1296
     66 H24         2.5196    2.3398    6.0397 H         1 <0>         0.4002
     67 H25         5.0266    2.3102    7.3399 H         1 <0>         0.0868
     68 H26         4.4043    3.9777    7.3594 H         1 <0>         0.0880
     69 H27         2.3788    4.5340    8.5813 H         1 <0>         0.1456
     70 H28         0.8997    3.9601   10.4641 H         1 <0>         0.1520
     71 H29         0.9124    1.6776   11.3884 H         1 <0>         0.1571
     72 H30         3.8770    0.5411    8.5408 H         1 <0>         0.1562
     73 H31        -0.4390    9.4710   -3.2585 H         1 <0>         0.4394
@<TRIPOS>BOND
     1    1    2 3
     2    1   43 1
     3    2    3 1
     4    3    4 1
     5    3   44 1
     6    3   45 1
     7    4    5 1
     8    4   24 1
     9    5   46 1
    10    5   47 1
    11    5    6 1
    12    6   11 ar
    13    6    7 ar
    14    7   48 1
    15    7    8 ar
    16    8   49 1
    17    8    9 ar
    18    9   10 ar
    19    9   15 1
    20   10   12 1
    21   10   11 ar
    22   11   50 1
    23   12   23 2
    24   12   13 am
    25   13   14 1
    26   13   61 1
    27   14   15 2
    28   14   16 1
    29   16   17 1
    30   16   51 1
    31   16   52 1
    32   17   21 1
    33   17   18 1
    34   17   73 1
    35   18   19 1
    36   18   53 1
    37   18   54 1
    38   19   20 1
    39   19   55 1
    40   19   56 1
    41   20   21 1
    42   20   22 1
    43   20   57 1
    44   21   58 1
    45   21   59 1
    46   22   60 1
    47   24   29 ar
    48   24   25 ar
    49   25   26 ar
    50   25   62 1
    51   26   27 ar
    52   26   63 1
    53   27   28 ar
    54   27   30 1
    55   28   29 ar
    56   28   64 1
    57   29   65 1
    58   30   31 2
    59   30   32 am
    60   32   33 1
    61   32   66 1
    62   33   34 1
    63   33   67 1
    64   33   68 1
    65   34   39 ar
    66   34   35 ar
    67   35   36 ar
    68   35   69 1
    69   36   37 ar
    70   36   70 1
    71   37   38 ar
    72   37   71 1
    73   38   39 ar
    74   38   40 1
    75   39   72 1
    76   40   41 2
    77   40   42 1
@<TRIPOS>MOLECULE
CHEMBL163990__1
   72    76     0     0     0
SMALL
USER_CHARGES

@<TRIPOS>ATOM
      1 C1          0.0180   -1.1779   -0.0044 C.1       1 <0>        -0.1794
      2 C2          0.0021   -0.0041    0.0020 C.1       1 <0>        -0.2147
      3 C3         -0.0179    1.4678    0.0101 C.3       1 <0>         0.2293
      4 N1          1.3565    1.9749   -0.0003 N.pl3     1 <0>        -0.6083
      5 C4          2.0316    2.2352   -1.2741 C.3       1 <0>         0.1648
      6 C5          1.7714    3.6575   -1.6991 C.ar      1 <0>        -0.1615
      7 C6          0.6597    3.9464   -2.4861 C.ar      1 <0>        -0.0642
      8 C7          0.3950    5.2217   -2.8874 C.ar      1 <0>        -0.1342
      9 C8          1.2540    6.2606   -2.5029 C.ar      1 <0>         0.1875
     10 C9          2.3845    5.9647   -1.7022 C.ar      1 <0>        -0.2147
     11 C10         2.6247    4.6443   -1.3029 C.ar      1 <0>        -0.0120
     12 C11         3.2359    7.0301   -1.3282 C.ar      1 <0>         0.4728
     13 N2          2.9328    8.2496   -1.7454 N.ar      1 <0>        -0.6320
     14 C12         1.8646    8.4799   -2.4932 C.ar      1 <0>         0.3053
     15 N3          1.0402    7.5322   -2.8704 N.ar      1 <0>        -0.5945
     16 C13         1.5833    9.8945   -2.9301 C.3       1 <0>         0.0820
     17 N4          2.2481   10.1516   -4.2146 N.4       1 <0>        -0.3812
     18 C14         3.7147   10.1040   -4.0341 C.3       1 <0>        -0.0002
     19 C15         4.2660   11.1948   -4.9858 C.3       1 <0>        -0.1795
     20 C16         3.1849   12.2998   -4.8557 C.3       1 <0>         0.0926
     21 C17         1.8787   11.4922   -4.7048 C.3       1 <0>        -0.0051
     22 O1          3.1455   13.1092   -6.0327 O.3       1 <0>        -0.5514
     23 O2          4.3302    6.8094   -0.5642 O.3       1 <0>        -0.6344
     24 C18         2.0203    2.2090    1.1989 C.ar      1 <0>         0.2501
     25 C19         3.3243    2.6963    1.1874 C.ar      1 <0>        -0.2004
     26 C20         3.9839    2.9291    2.3725 C.ar      1 <0>        -0.0006
     27 C21         3.3431    2.6757    3.5888 C.ar      1 <0>        -0.2025
     28 C22         2.0335    2.1865    3.5970 C.ar      1 <0>        -0.0357
     29 C23         1.3773    1.9611    2.4086 C.ar      1 <0>        -0.2059
     30 C24         4.0474    2.9237    4.8610 C.2       1 <0>         0.5691
     31 O3          5.1866    3.3489    4.8524 O.2       1 <0>        -0.5374
     32 N5          3.4283    2.6790    6.0329 N.am      1 <0>        -0.7325
     33 C25         4.1278    2.9253    7.2963 C.3       1 <0>         0.1623
     34 C26         3.2223    2.5739    8.4486 C.ar      1 <0>        -0.1053
     35 C27         2.3843    3.5330    8.9866 C.ar      1 <0>        -0.0493
     36 C28         1.5538    3.2107   10.0434 C.ar      1 <0>        -0.1162
     37 C29         1.5608    1.9292   10.5622 C.ar      1 <0>        -0.0486
     38 C30         2.3979    0.9702   10.0238 C.ar      1 <0>        -0.0499
     39 C31         3.2255    1.2914    8.9639 C.ar      1 <0>        -0.0376
     40 N6          2.4058   -0.4016   10.5796 N.pl3     1 <0>         0.0320
     41 O4          1.6800   -0.6832   11.5046 O.2       1 <0>        -0.1555
     42 O5          3.1381   -1.2404   10.1087 O.3       1 <0>        -0.1545
     43 H1          0.0322   -2.2278   -0.0102 H         1 <0>         0.2168
     44 H2         -0.5451    1.8289   -0.8729 H         1 <0>         0.1003
     45 H3         -0.5281    1.8193    0.9069 H         1 <0>         0.1003
     46 H4          3.1042    2.0821   -1.1549 H         1 <0>         0.0869
     47 H5          1.6495    1.5533   -2.0338 H         1 <0>         0.0854
     48 H6         -0.0031    3.1473   -2.7836 H         1 <0>         0.1200
     49 H7         -0.4710    5.4306   -3.4980 H         1 <0>         0.1270
     50 H8          3.4813    4.4089   -0.6888 H         1 <0>         0.1317
     51 H9          0.5081   10.0328   -3.0434 H         1 <0>         0.1413
     52 H10         1.9618   10.5886   -2.1797 H         1 <0>         0.1419
     53 H11         3.9776   10.3333   -3.0014 H         1 <0>         0.1474
     54 H12         4.1002    9.1242   -4.3160 H         1 <0>         0.1300
     55 H13         5.2365   11.5559   -4.6453 H         1 <0>         0.1171
     56 H14         4.3258   10.8257   -6.0097 H         1 <0>         0.1021
     57 H15         3.3639   12.9119   -3.9716 H         1 <0>         0.0979
     58 H16         1.3802   11.4094   -5.6707 H         1 <0>         0.1397
     59 H17         1.2210   11.9815   -3.9864 H         1 <0>         0.1401
     60 H18         3.9709   13.5790   -6.2148 H         1 <0>         0.4005
     61 H19         3.8190    2.8915    0.2474 H         1 <0>         0.1316
     62 H20         4.9956    3.3068    2.3629 H         1 <0>         0.1364
     63 H21         1.5360    1.9894    4.5351 H         1 <0>         0.1198
     64 H22         0.3640    1.5876    2.4143 H         1 <0>         0.1264
     65 H23         2.5196    2.3398    6.0397 H         1 <0>         0.3997
     66 H24         5.0266    2.3102    7.3399 H         1 <0>         0.0851
     67 H25         4.4043    3.9777    7.3594 H         1 <0>         0.0872
     68 H26         2.3788    4.5340    8.5813 H         1 <0>         0.1469
     69 H27         0.8997    3.9601   10.4641 H         1 <0>         0.1514
     70 H28         0.9124    1.6776   11.3884 H         1 <0>         0.1556
     71 H29         3.8770    0.5411    8.5408 H         1 <0>         0.1561
     72 H30         1.9680    9.4546   -4.8882 H         1 <0>         0.4288
@<TRIPOS>BOND
     1    1    2 3
     2    1   43 1
     3    2    3 1
     4    3    4 1
     5    3   44 1
     6    3   45 1
     7    4    5 1
     8    4   24 1
     9    5   46 1
    10    5   47 1
    11    5    6 1
    12    6   11 ar
    13    6    7 ar
    14    7   48 1
    15    7    8 ar
    16    8   49 1
    17    8    9 ar
    18    9   10 ar
    19    9   15 ar
    20   10   12 ar
    21   10   11 ar
    22   11   50 1
    23   12   23 1
    24   12   13 ar
    25   13   14 ar
    26   14   15 ar
    27   14   16 1
    28   16   17 1
    29   16   51 1
    30   16   52 1
    31   17   21 1
    32   17   18 1
    33   17   72 1
    34   18   19 1
    35   18   53 1
    36   18   54 1
    37   19   20 1
    38   19   55 1
    39   19   56 1
    40   20   21 1
    41   20   22 1
    42   20   57 1
    43   21   58 1
    44   21   59 1
    45   22   60 1
    46   24   29 ar
    47   24   25 ar
    48   25   26 ar
    49   25   61 1
    50   26   27 ar
    51   26   62 1
    52   27   28 ar
    53   27   30 1
    54   28   29 ar
    55   28   63 1
    56   29   64 1
    57   30   31 2
    58   30   32 am
    59   32   33 1
    60   32   65 1
    61   33   34 1
    62   33   66 1
    63   33   67 1
    64   34   39 ar
    65   34   35 ar
    66   35   36 ar
    67   35   68 1
    68   36   37 ar
    69   36   69 1
    70   37   38 ar
    71   37   70 1
    72   38   39 ar
    73   38   40 1
    74   39   71 1
    75   40   41 2
    76   40   42 1
@<TRIPOS>MOLECULE
CHEMBL163990__2
   72    76     0     0     0
SMALL
USER_CHARGES

@<TRIPOS>ATOM
      1 C1          0.0180   -1.1779   -0.0044 C.1       1 <0>        -0.1723
      2 C2          0.0021   -0.0041    0.0020 C.1       1 <0>        -0.2203
      3 C3         -0.0179    1.4678    0.0101 C.3       1 <0>         0.2297
      4 N1          1.3565    1.9749   -0.0003 N.pl3     1 <0>        -0.6095
      5 C4          2.0316    2.2352   -1.2741 C.3       1 <0>         0.1607
      6 C5          1.7714    3.6575   -1.6991 C.ar      1 <0>        -0.1314
      7 C6          0.6636    3.9497   -2.4842 C.ar      1 <0>        -0.0590
      8 C7          0.4041    5.2407   -2.8853 C.ar      1 <0>        -0.1062
      9 C8          1.2642    6.2709   -2.4991 C.ar      1 <0>         0.1593
     10 C9          2.3898    5.9701   -1.7007 C.ar      1 <0>        -0.1983
     11 C10         2.6313    4.6574   -1.3008 C.ar      1 <0>        -0.0233
     12 C11         3.2758    7.0773   -1.3117 C.2       1 <0>         0.5518
     13 N2          2.9516    8.3171   -1.7470 N.am      1 <0>        -0.6533
     14 C12         1.8471    8.5143   -2.5131 C.2       1 <0>         0.3951
     15 N3          1.0468    7.5569   -2.8720 N.2       1 <0>        -0.4878
     16 C13         1.5343    9.9162   -2.9691 C.3       1 <0>         0.0916
     17 N4          0.3085    9.9058   -3.7785 N.3       1 <0>        -0.4989
     18 C14         0.5337    9.2272   -5.0726 C.3       1 <0>         0.0500
     19 C15        -0.3743    9.9796   -6.0771 C.3       1 <0>        -0.1658
     20 C16        -0.2520   11.4425   -5.5752 C.3       1 <0>         0.0817
     21 C17        -0.1614   11.2780   -4.0435 C.3       1 <0>         0.0470
     22 O1         -1.4103   12.1984   -5.9345 O.3       1 <0>        -0.5590
     23 O2          4.2622    6.8862   -0.6245 O.2       1 <0>        -0.5046
     24 C18         2.0203    2.2090    1.1989 C.ar      1 <0>         0.2482
     25 C19         3.3243    2.6963    1.1874 C.ar      1 <0>        -0.2053
     26 C20         3.9839    2.9291    2.3725 C.ar      1 <0>        -0.0031
     27 C21         3.3431    2.6757    3.5888 C.ar      1 <0>        -0.1993
     28 C22         2.0335    2.1865    3.5970 C.ar      1 <0>        -0.0342
     29 C23         1.3773    1.9611    2.4086 C.ar      1 <0>        -0.2023
     30 C24         4.0474    2.9237    4.8610 C.2       1 <0>         0.5680
     31 O3          5.1866    3.3489    4.8524 O.2       1 <0>        -0.5377
     32 N5          3.4283    2.6790    6.0329 N.am      1 <0>        -0.7313
     33 C25         4.1278    2.9253    7.2963 C.3       1 <0>         0.1625
     34 C26         3.2223    2.5739    8.4486 C.ar      1 <0>        -0.1070
     35 C27         2.3843    3.5330    8.9866 C.ar      1 <0>        -0.0495
     36 C28         1.5538    3.2107   10.0434 C.ar      1 <0>        -0.1159
     37 C29         1.5608    1.9292   10.5622 C.ar      1 <0>        -0.0478
     38 C30         2.3979    0.9702   10.0238 C.ar      1 <0>        -0.0495
     39 C31         3.2255    1.2914    8.9639 C.ar      1 <0>        -0.0376
     40 N6          2.4058   -0.4016   10.5796 N.pl3     1 <0>         0.0315
     41 O4          1.6800   -0.6832   11.5046 O.2       1 <0>        -0.1543
     42 O5          3.1381   -1.2404   10.1087 O.3       1 <0>        -0.1542
     43 H1          0.0322   -2.2278   -0.0102 H         1 <0>         0.2175
     44 H2         -0.5451    1.8289   -0.8729 H         1 <0>         0.1012
     45 H3         -0.5281    1.8193    0.9069 H         1 <0>         0.1020
     46 H4          3.1042    2.0821   -1.1549 H         1 <0>         0.0918
     47 H5          1.6495    1.5533   -2.0338 H         1 <0>         0.0926
     48 H6         -0.0024    3.1541   -2.7840 H         1 <0>         0.1331
     49 H7         -0.4602    5.4558   -3.4960 H         1 <0>         0.1421
     50 H8          3.4885    4.4248   -0.6864 H         1 <0>         0.1391
     51 H9          1.3902   10.5574   -2.0995 H         1 <0>         0.1125
     52 H10         2.3619   10.2966   -3.5679 H         1 <0>         0.0734
     53 H11         1.5793    9.3123   -5.3687 H         1 <0>         0.0432
     54 H12         0.2409    8.1793   -5.0076 H         1 <0>         0.1012
     55 H13         0.0050    9.8829   -7.0944 H         1 <0>         0.0767
     56 H14        -1.4042    9.6289   -6.0110 H         1 <0>         0.0881
     57 H15         0.6514   11.9100   -5.9667 H         1 <0>         0.0641
     58 H16        -1.1440   11.4264   -3.5958 H         1 <0>         0.0963
     59 H17         0.5474   11.9981   -3.6345 H         1 <0>         0.0646
     60 H18        -1.5553   12.2664   -6.8882 H         1 <0>         0.3826
     61 H19         3.5129    9.0718   -1.5097 H         1 <0>         0.4185
     62 H20         3.8190    2.8915    0.2474 H         1 <0>         0.1302
     63 H21         4.9956    3.3068    2.3629 H         1 <0>         0.1366
     64 H22         1.5360    1.9894    4.5351 H         1 <0>         0.1217
     65 H23         0.3640    1.5876    2.4143 H         1 <0>         0.1284
     66 H24         2.5196    2.3398    6.0397 H         1 <0>         0.4001
     67 H25         5.0266    2.3102    7.3399 H         1 <0>         0.0856
     68 H26         4.4043    3.9777    7.3594 H         1 <0>         0.0876
     69 H27         2.3788    4.5340    8.5813 H         1 <0>         0.1467
     70 H28         0.8997    3.9601   10.4641 H         1 <0>         0.1518
     71 H29         0.9124    1.6776   11.3884 H         1 <0>         0.1561
     72 H30         3.8770    0.5411    8.5408 H         1 <0>         0.1560
@<TRIPOS>BOND
     1    1    2 3
     2    1   43 1
     3    2    3 1
     4    3    4 1
     5    3   44 1
     6    3   45 1
     7    4    5 1
     8    4   24 1
     9    5   46 1
    10    5   47 1
    11    5    6 1
    12    6   11 ar
    13    6    7 ar
    14    7   48 1
    15    7    8 ar
    16    8   49 1
    17    8    9 ar
    18    9   10 ar
    19    9   15 1
    20   10   12 1
    21   10   11 ar
    22   11   50 1
    23   12   23 2
    24   12   13 am
    25   13   14 1
    26   13   61 1
    27   14   15 2
    28   14   16 1
    29   16   17 1
    30   16   51 1
    31   16   52 1
    32   17   21 1
    33   17   18 1
    34   18   19 1
    35   18   53 1
    36   18   54 1
    37   19   20 1
    38   19   55 1
    39   19   56 1
    40   20   21 1
    41   20   22 1
    42   20   57 1
    43   21   58 1
    44   21   59 1
    45   22   60 1
    46   24   29 ar
    47   24   25 ar
    48   25   26 ar
    49   25   62 1
    50   26   27 ar
    51   26   63 1
    52   27   28 ar
    53   27   30 1
    54   28   29 ar
    55   28   64 1
    56   29   65 1
    57   30   31 2
    58   30   32 am
    59   32   33 1
    60   32   66 1
    61   33   34 1
    62   33   67 1
    63   33   68 1
    64   34   39 ar
    65   34   35 ar
    66   35   36 ar
    67   35   69 1
    68   36   37 ar
    69   36   70 1
    70   37   38 ar
    71   37   71 1
    72   38   39 ar
    73   38   40 1
    74   39   72 1
    75   40   41 2
    76   40   42 1
@<TRIPOS>MOLECULE
CHEMBL163990__3
   73    77     0     0     0
SMALL
USER_CHARGES

@<TRIPOS>ATOM
      1 C1          0.0180   -1.1779   -0.0044 C.1       1 <0>        -0.1593
      2 C2          0.0021   -0.0041    0.0020 C.1       1 <0>        -0.2319
      3 C3         -0.0179    1.4678    0.0101 C.3       1 <0>         0.2333
      4 N1          1.3565    1.9749   -0.0003 N.pl3     1 <0>        -0.6119
      5 C4          2.0316    2.2352   -1.2741 C.3       1 <0>         0.1541
      6 C5          1.7714    3.6575   -1.6991 C.ar      1 <0>        -0.1024
      7 C6          0.6636    3.9497   -2.4842 C.ar      1 <0>        -0.0564
      8 C7          0.4041    5.2407   -2.8853 C.ar      1 <0>        -0.0968
      9 C8          1.2642    6.2709   -2.4991 C.ar      1 <0>         0.1388
     10 C9          2.3898    5.9701   -1.7007 C.ar      1 <0>        -0.1760
     11 C10         2.6313    4.6574   -1.3008 C.ar      1 <0>        -0.0254
     12 C11         3.2758    7.0773   -1.3117 C.2       1 <0>         0.5522
     13 N2          2.9516    8.3171   -1.7470 N.am      1 <0>        -0.6436
     14 C12         1.8471    8.5143   -2.5131 C.2       1 <0>         0.3592
     15 N3          1.0468    7.5569   -2.8720 N.2       1 <0>        -0.5259
     16 C13         1.5343    9.9162   -2.9691 C.3       1 <0>         0.0556
     17 N4          0.3085    9.9058   -3.7785 N.4       1 <0>        -0.3803
     18 C14         0.5545    9.2441   -5.0856 C.3       1 <0>        -0.0006
     19 C15        -0.5600    9.7809   -6.0092 C.3       1 <0>        -0.1830
     20 C16        -0.9823   11.1277   -5.3869 C.3       1 <0>         0.0904
     21 C17        -0.0874   11.2914   -4.1396 C.3       1 <0>        -0.0026
     22 O1         -0.7496   12.1949   -6.3083 O.3       1 <0>        -0.5501
     23 O2          4.2622    6.8862   -0.6245 O.2       1 <0>        -0.4726
     24 C18         2.0203    2.2090    1.1989 C.ar      1 <0>         0.2423
     25 C19         3.3243    2.6963    1.1874 C.ar      1 <0>        -0.2072
     26 C20         3.9839    2.9291    2.3725 C.ar      1 <0>        -0.0044
     27 C21         3.3431    2.6757    3.5888 C.ar      1 <0>        -0.1927
     28 C22         2.0335    2.1865    3.5970 C.ar      1 <0>        -0.0336
     29 C23         1.3773    1.9611    2.4086 C.ar      1 <0>        -0.1988
     30 C24         4.0474    2.9237    4.8610 C.2       1 <0>         0.5658
     31 O3          5.1866    3.3489    4.8524 O.2       1 <0>        -0.5360
     32 N5          3.4283    2.6790    6.0329 N.am      1 <0>        -0.7296
     33 C25         4.1278    2.9253    7.2963 C.3       1 <0>         0.1627
     34 C26         3.2223    2.5739    8.4486 C.ar      1 <0>        -0.1093
     35 C27         2.3843    3.5330    8.9866 C.ar      1 <0>        -0.0506
     36 C28         1.5538    3.2107   10.0434 C.ar      1 <0>        -0.1158
     37 C29         1.5608    1.9292   10.5622 C.ar      1 <0>        -0.0465
     38 C30         2.3979    0.9702   10.0238 C.ar      1 <0>        -0.0483
     39 C31         3.2255    1.2914    8.9639 C.ar      1 <0>        -0.0376
     40 N6          2.4058   -0.4016   10.5796 N.pl3     1 <0>         0.0301
     41 O4          1.6800   -0.6832   11.5046 O.2       1 <0>        -0.1515
     42 O5          3.1381   -1.2404   10.1087 O.3       1 <0>        -0.1530
     43 H1          0.0322   -2.2278   -0.0102 H         1 <0>         0.2191
     44 H2         -0.5451    1.8289   -0.8729 H         1 <0>         0.0984
     45 H3         -0.5281    1.8193    0.9069 H         1 <0>         0.1024
     46 H4          3.1042    2.0821   -1.1549 H         1 <0>         0.0967
     47 H5          1.6495    1.5533   -2.0338 H         1 <0>         0.0976
     48 H6         -0.0024    3.1541   -2.7840 H         1 <0>         0.1420
     49 H7         -0.4602    5.4558   -3.4960 H         1 <0>         0.1444
     50 H8          3.4885    4.4248   -0.6864 H         1 <0>         0.1478
     51 H9          1.3902   10.5574   -2.0995 H         1 <0>         0.1640
     52 H10         2.3619   10.2966   -3.5679 H         1 <0>         0.1628
     53 H11         1.5352    9.5204   -5.4730 H         1 <0>         0.1306
     54 H12         0.4759    8.1617   -4.9845 H         1 <0>         0.1480
     55 H13        -0.1752    9.9338   -7.0175 H         1 <0>         0.1201
     56 H14        -1.4033    9.0904   -6.0257 H         1 <0>         0.1072
     57 H15        -2.0329   11.0984   -5.0979 H         1 <0>         0.0982
     58 H16        -0.6493   11.7504   -3.3262 H         1 <0>         0.1467
     59 H17         0.7928   11.8881   -4.3789 H         1 <0>         0.1469
     60 H18        -1.2520   12.1207   -7.1312 H         1 <0>         0.4056
     61 H19         3.5129    9.0718   -1.5097 H         1 <0>         0.4258
     62 H20         3.8190    2.8915    0.2474 H         1 <0>         0.1280
     63 H21         4.9956    3.3068    2.3629 H         1 <0>         0.1378
     64 H22         1.5360    1.9894    4.5351 H         1 <0>         0.1242
     65 H23         0.3640    1.5876    2.4143 H         1 <0>         0.1296
     66 H24         2.5196    2.3398    6.0397 H         1 <0>         0.4002
     67 H25         5.0266    2.3102    7.3399 H         1 <0>         0.0868
     68 H26         4.4043    3.9777    7.3594 H         1 <0>         0.0880
     69 H27         2.3788    4.5340    8.5813 H         1 <0>         0.1456
     70 H28         0.8997    3.9601   10.4641 H         1 <0>         0.1520
     71 H29         0.9124    1.6776   11.3884 H         1 <0>         0.1571
     72 H30         3.8770    0.5411    8.5408 H         1 <0>         0.1562
     73 H31        -0.4384    9.4435   -3.2819 H         1 <0>         0.4393
@<TRIPOS>BOND
     1    1    2 3
     2    1   43 1
     3    2    3 1
     4    3    4 1
     5    3   44 1
     6    3   45 1
     7    4    5 1
     8    4   24 1
     9    5   46 1
    10    5   47 1
    11    5    6 1
    12    6   11 ar
    13    6    7 ar
    14    7   48 1
    15    7    8 ar
    16    8   49 1
    17    8    9 ar
    18    9   10 ar
    19    9   15 1
    20   10   12 1
    21   10   11 ar
    22   11   50 1
    23   12   23 2
    24   12   13 am
    25   13   14 1
    26   13   61 1
    27   14   15 2
    28   14   16 1
    29   16   17 1
    30   16   51 1
    31   16   52 1
    32   17   21 1
    33   17   18 1
    34   17   73 1
    35   18   19 1
    36   18   53 1
    37   18   54 1
    38   19   20 1
    39   19   55 1
    40   19   56 1
    41   20   21 1
    42   20   22 1
    43   20   57 1
    44   21   58 1
    45   21   59 1
    46   22   60 1
    47   24   29 ar
    48   24   25 ar
    49   25   26 ar
    50   25   62 1
    51   26   27 ar
    52   26   63 1
    53   27   28 ar
    54   27   30 1
    55   28   29 ar
    56   28   64 1
    57   29   65 1
    58   30   31 2
    59   30   32 am
    60   32   33 1
    61   32   66 1
    62   33   34 1
    63   33   67 1
    64   33   68 1
    65   34   39 ar
    66   34   35 ar
    67   35   36 ar
    68   35   69 1
    69   36   37 ar
    70   36   70 1
    71   37   38 ar
    72   37   71 1
    73   38   39 ar
    74   38   40 1
    75   39   72 1
    76   40   41 2
    77   40   42 1
@<TRIPOS>MOLECULE
CHEMBL163990__4
   72    76     0     0     0
SMALL
USER_CHARGES

@<TRIPOS>ATOM
      1 C1          0.0180   -1.1779   -0.0044 C.1       1 <0>        -0.1796
      2 C2          0.0021   -0.0041    0.0020 C.1       1 <0>        -0.2146
      3 C3         -0.0179    1.4678    0.0101 C.3       1 <0>         0.2293
      4 N1          1.3565    1.9749   -0.0003 N.pl3     1 <0>        -0.6083
      5 C4          2.0316    2.2352   -1.2741 C.3       1 <0>         0.1649
      6 C5          1.7714    3.6575   -1.6991 C.ar      1 <0>        -0.1619
      7 C6          0.6597    3.9464   -2.4861 C.ar      1 <0>        -0.0642
      8 C7          0.3950    5.2217   -2.8874 C.ar      1 <0>        -0.1345
      9 C8          1.2540    6.2606   -2.5029 C.ar      1 <0>         0.1877
     10 C9          2.3845    5.9647   -1.7022 C.ar      1 <0>        -0.2150
     11 C10         2.6247    4.6443   -1.3029 C.ar      1 <0>        -0.0118
     12 C11         3.2359    7.0301   -1.3282 C.ar      1 <0>         0.4724
     13 N2          2.9328    8.2496   -1.7454 N.ar      1 <0>        -0.6309
     14 C12         1.8646    8.4799   -2.4932 C.ar      1 <0>         0.3059
     15 N3          1.0402    7.5322   -2.8704 N.ar      1 <0>        -0.5952
     16 C13         1.5833    9.8945   -2.9301 C.3       1 <0>         0.0870
     17 N4          2.2481   10.1516   -4.2146 N.4       1 <0>        -0.3870
     18 C14         3.7215   10.2115   -4.0342 C.3       1 <0>         0.0081
     19 C15         4.2302   11.0127   -5.2519 C.3       1 <0>        -0.1835
     20 C16         3.0239   11.8599   -5.7066 C.3       1 <0>         0.0900
     21 C17         1.8878   11.4993   -4.7254 C.3       1 <0>         0.0018
     22 O1          3.3334   13.2521   -5.6176 O.3       1 <0>        -0.5509
     23 O2          4.3302    6.8094   -0.5642 O.3       1 <0>        -0.6341
     24 C18         2.0203    2.2090    1.1989 C.ar      1 <0>         0.2501
     25 C19         3.3243    2.6963    1.1874 C.ar      1 <0>        -0.2003
     26 C20         3.9839    2.9291    2.3725 C.ar      1 <0>        -0.0006
     27 C21         3.3431    2.6757    3.5888 C.ar      1 <0>        -0.2024
     28 C22         2.0335    2.1865    3.5970 C.ar      1 <0>        -0.0358
     29 C23         1.3773    1.9611    2.4086 C.ar      1 <0>        -0.2059
     30 C24         4.0474    2.9237    4.8610 C.2       1 <0>         0.5690
     31 O3          5.1866    3.3489    4.8524 O.2       1 <0>        -0.5373
     32 N5          3.4283    2.6790    6.0329 N.am      1 <0>        -0.7325
     33 C25         4.1278    2.9253    7.2963 C.3       1 <0>         0.1623
     34 C26         3.2223    2.5739    8.4486 C.ar      1 <0>        -0.1053
     35 C27         2.3843    3.5330    8.9866 C.ar      1 <0>        -0.0493
     36 C28         1.5538    3.2107   10.0434 C.ar      1 <0>        -0.1162
     37 C29         1.5608    1.9292   10.5622 C.ar      1 <0>        -0.0486
     38 C30         2.3979    0.9702   10.0238 C.ar      1 <0>        -0.0500
     39 C31         3.2255    1.2914    8.9639 C.ar      1 <0>        -0.0376
     40 N6          2.4058   -0.4016   10.5796 N.pl3     1 <0>         0.0320
     41 O4          1.6800   -0.6832   11.5046 O.2       1 <0>        -0.1556
     42 O5          3.1381   -1.2404   10.1087 O.3       1 <0>        -0.1545
     43 H1          0.0322   -2.2278   -0.0102 H         1 <0>         0.2168
     44 H2         -0.5451    1.8289   -0.8729 H         1 <0>         0.1003
     45 H3         -0.5281    1.8193    0.9069 H         1 <0>         0.1003
     46 H4          3.1042    2.0821   -1.1549 H         1 <0>         0.0869
     47 H5          1.6495    1.5533   -2.0338 H         1 <0>         0.0853
     48 H6         -0.0031    3.1473   -2.7836 H         1 <0>         0.1199
     49 H7         -0.4710    5.4306   -3.4980 H         1 <0>         0.1268
     50 H8          3.4813    4.4089   -0.6888 H         1 <0>         0.1316
     51 H9          0.5081   10.0328   -3.0434 H         1 <0>         0.1413
     52 H10         1.9618   10.5886   -2.1797 H         1 <0>         0.1418
     53 H11         3.9704   10.7291   -3.1078 H         1 <0>         0.1399
     54 H12         4.1458    9.2075   -4.0356 H         1 <0>         0.1324
     55 H13         5.0583   11.6588   -4.9608 H         1 <0>         0.1171
     56 H14         4.5390   10.3356   -6.0483 H         1 <0>         0.1006
     57 H15         2.7406   11.5986   -6.7262 H         1 <0>         0.0932
     58 H16         0.9315   11.4649   -5.2473 H         1 <0>         0.1409
     59 H17         1.8497   12.2184   -3.9072 H         1 <0>         0.1431
     60 H18         4.0704   13.5279   -6.1795 H         1 <0>         0.3997
     61 H19         3.8190    2.8915    0.2474 H         1 <0>         0.1316
     62 H20         4.9956    3.3068    2.3629 H         1 <0>         0.1364
     63 H21         1.5360    1.9894    4.5351 H         1 <0>         0.1198
     64 H22         0.3640    1.5876    2.4143 H         1 <0>         0.1264
     65 H23         2.5196    2.3398    6.0397 H         1 <0>         0.3997
     66 H24         5.0266    2.3102    7.3399 H         1 <0>         0.0851
     67 H25         4.4043    3.9777    7.3594 H         1 <0>         0.0873
     68 H26         2.3788    4.5340    8.5813 H         1 <0>         0.1469
     69 H27         0.8997    3.9601   10.4641 H         1 <0>         0.1515
     70 H28         0.9124    1.6776   11.3884 H         1 <0>         0.1556
     71 H29         3.8770    0.5411    8.5408 H         1 <0>         0.1561
     72 H30         2.0018    9.4416   -4.8878 H         1 <0>         0.4284
@<TRIPOS>BOND
     1    1    2 3
     2    1   43 1
     3    2    3 1
     4    3    4 1
     5    3   44 1
     6    3   45 1
     7    4    5 1
     8    4   24 1
     9    5   46 1
    10    5   47 1
    11    5    6 1
    12    6   11 ar
    13    6    7 ar
    14    7   48 1
    15    7    8 ar
    16    8   49 1
    17    8    9 ar
    18    9   10 ar
    19    9   15 ar
    20   10   12 ar
    21   10   11 ar
    22   11   50 1
    23   12   23 1
    24   12   13 ar
    25   13   14 ar
    26   14   15 ar
    27   14   16 1
    28   16   17 1
    29   16   51 1
    30   16   52 1
    31   17   21 1
    32   17   18 1
    33   17   72 1
    34   18   19 1
    35   18   53 1
    36   18   54 1
    37   19   20 1
    38   19   55 1
    39   19   56 1
    40   20   21 1
    41   20   22 1
    42   20   57 1
    43   21   58 1
    44   21   59 1
    45   22   60 1
    46   24   29 ar
    47   24   25 ar
    48   25   26 ar
    49   25   61 1
    50   26   27 ar
    51   26   62 1
    52   27   28 ar
    53   27   30 1
    54   28   29 ar
    55   28   63 1
    56   29   64 1
    57   30   31 2
    58   30   32 am
    59   32   33 1
    60   32   65 1
    61   33   34 1
    62   33   66 1
    63   33   67 1
    64   34   39 ar
    65   34   35 ar
    66   35   36 ar
    67   35   68 1
    68   36   37 ar
    69   36   69 1
    70   37   38 ar
    71   37   70 1
    72   38   39 ar
    73   38   40 1
    74   39   71 1
    75   40   41 2
    76   40   42 1
@<TRIPOS>MOLECULE
CHEMBL163990__5
   72    76     0     0     0
SMALL
USER_CHARGES

@<TRIPOS>ATOM
      1 C1          0.0180   -1.1779   -0.0044 C.1       1 <0>        -0.1722
      2 C2          0.0021   -0.0041    0.0020 C.1       1 <0>        -0.2204
      3 C3         -0.0179    1.4678    0.0101 C.3       1 <0>         0.2298
      4 N1          1.3565    1.9749   -0.0003 N.pl3     1 <0>        -0.6095
      5 C4          2.0316    2.2352   -1.2741 C.3       1 <0>         0.1607
      6 C5          1.7714    3.6575   -1.6991 C.ar      1 <0>        -0.1316
      7 C6          0.6636    3.9497   -2.4842 C.ar      1 <0>        -0.0591
      8 C7          0.4041    5.2407   -2.8853 C.ar      1 <0>        -0.1063
      9 C8          1.2642    6.2709   -2.4991 C.ar      1 <0>         0.1595
     10 C9          2.3898    5.9701   -1.7007 C.ar      1 <0>        -0.1985
     11 C10         2.6313    4.6574   -1.3008 C.ar      1 <0>        -0.0231
     12 C11         3.2758    7.0773   -1.3117 C.2       1 <0>         0.5518
     13 N2          2.9516    8.3171   -1.7470 N.am      1 <0>        -0.6533
     14 C12         1.8471    8.5143   -2.5131 C.2       1 <0>         0.3966
     15 N3          1.0468    7.5569   -2.8720 N.2       1 <0>        -0.4876
     16 C13         1.5343    9.9162   -2.9691 C.3       1 <0>         0.0872
     17 N4          0.3085    9.9058   -3.7785 N.3       1 <0>        -0.4816
     18 C14         0.5665    9.3414   -5.1282 C.3       1 <0>         0.0368
     19 C15        -0.5898    9.8753   -6.0007 C.3       1 <0>        -0.1581
     20 C16        -1.0710   11.1562   -5.2884 C.3       1 <0>         0.0997
     21 C17        -0.1649   11.2884   -4.0455 C.3       1 <0>         0.0363
     22 O1         -0.9096   12.2899   -6.1432 O.3       1 <0>        -0.5674
     23 O2          4.2622    6.8862   -0.6245 O.2       1 <0>        -0.5045
     24 C18         2.0203    2.2090    1.1989 C.ar      1 <0>         0.2481
     25 C19         3.3243    2.6963    1.1874 C.ar      1 <0>        -0.2053
     26 C20         3.9839    2.9291    2.3725 C.ar      1 <0>        -0.0030
     27 C21         3.3431    2.6757    3.5888 C.ar      1 <0>        -0.1993
     28 C22         2.0335    2.1865    3.5970 C.ar      1 <0>        -0.0342
     29 C23         1.3773    1.9611    2.4086 C.ar      1 <0>        -0.2023
     30 C24         4.0474    2.9237    4.8610 C.2       1 <0>         0.5680
     31 O3          5.1866    3.3489    4.8524 O.2       1 <0>        -0.5376
     32 N5          3.4283    2.6790    6.0329 N.am      1 <0>        -0.7313
     33 C25         4.1278    2.9253    7.2963 C.3       1 <0>         0.1625
     34 C26         3.2223    2.5739    8.4486 C.ar      1 <0>        -0.1069
     35 C27         2.3843    3.5330    8.9866 C.ar      1 <0>        -0.0495
     36 C28         1.5538    3.2107   10.0434 C.ar      1 <0>        -0.1159
     37 C29         1.5608    1.9292   10.5622 C.ar      1 <0>        -0.0478
     38 C30         2.3979    0.9702   10.0238 C.ar      1 <0>        -0.0495
     39 C31         3.2255    1.2914    8.9639 C.ar      1 <0>        -0.0376
     40 N6          2.4058   -0.4016   10.5796 N.pl3     1 <0>         0.0315
     41 O4          1.6800   -0.6832   11.5046 O.2       1 <0>        -0.1543
     42 O5          3.1381   -1.2404   10.1087 O.3       1 <0>        -0.1542
     43 H1          0.0322   -2.2278   -0.0102 H         1 <0>         0.2175
     44 H2         -0.5451    1.8289   -0.8729 H         1 <0>         0.1011
     45 H3         -0.5281    1.8193    0.9069 H         1 <0>         0.1019
     46 H4          3.1042    2.0821   -1.1549 H         1 <0>         0.0919
     47 H5          1.6495    1.5533   -2.0338 H         1 <0>         0.0926
     48 H6         -0.0024    3.1541   -2.7840 H         1 <0>         0.1330
     49 H7         -0.4602    5.4558   -3.4960 H         1 <0>         0.1420
     50 H8          3.4885    4.4248   -0.6864 H         1 <0>         0.1391
     51 H9          1.3902   10.5574   -2.0995 H         1 <0>         0.1128
     52 H10         2.3619   10.2966   -3.5679 H         1 <0>         0.0761
     53 H11         1.5248    9.6929   -5.5105 H         1 <0>         0.0425
     54 H12         0.5460    8.2521   -5.0950 H         1 <0>         0.0982
     55 H13        -0.2305   10.1113   -7.0023 H         1 <0>         0.0781
     56 H14        -1.3963    9.1436   -6.0496 H         1 <0>         0.0797
     57 H15        -2.1136   11.0532   -4.9876 H         1 <0>         0.0714
     58 H16        -0.7361   11.6652   -3.1970 H         1 <0>         0.0934
     59 H17         0.6789   11.9447   -4.2583 H         1 <0>         0.0597
     60 H18        -1.4213   12.2410   -6.9622 H         1 <0>         0.3831
     61 H19         3.5129    9.0718   -1.5097 H         1 <0>         0.4186
     62 H20         3.8190    2.8915    0.2474 H         1 <0>         0.1302
     63 H21         4.9956    3.3068    2.3629 H         1 <0>         0.1366
     64 H22         1.5360    1.9894    4.5351 H         1 <0>         0.1216
     65 H23         0.3640    1.5876    2.4143 H         1 <0>         0.1283
     66 H24         2.5196    2.3398    6.0397 H         1 <0>         0.4001
     67 H25         5.0266    2.3102    7.3399 H         1 <0>         0.0857
     68 H26         4.4043    3.9777    7.3594 H         1 <0>         0.0876
     69 H27         2.3788    4.5340    8.5813 H         1 <0>         0.1466
     70 H28         0.8997    3.9601   10.4641 H         1 <0>         0.1518
     71 H29         0.9124    1.6776   11.3884 H         1 <0>         0.1561
     72 H30         3.8770    0.5411    8.5408 H         1 <0>         0.1561
@<TRIPOS>BOND
     1    1    2 3
     2    1   43 1
     3    2    3 1
     4    3    4 1
     5    3   44 1
     6    3   45 1
     7    4    5 1
     8    4   24 1
     9    5   46 1
    10    5   47 1
    11    5    6 1
    12    6   11 ar
    13    6    7 ar
    14    7   48 1
    15    7    8 ar
    16    8   49 1
    17    8    9 ar
    18    9   10 ar
    19    9   15 1
    20   10   12 1
    21   10   11 ar
    22   11   50 1
    23   12   23 2
    24   12   13 am
    25   13   14 1
    26   13   61 1
    27   14   15 2
    28   14   16 1
    29   16   17 1
    30   16   51 1
    31   16   52 1
    32   17   21 1
    33   17   18 1
    34   18   19 1
    35   18   53 1
    36   18   54 1
    37   19   20 1
    38   19   55 1
    39   19   56 1
    40   20   21 1
    41   20   22 1
    42   20   57 1
    43   21   58 1
    44   21   59 1
    45   22   60 1
    46   24   29 ar
    47   24   25 ar
    48   25   26 ar
    49   25   62 1
    50   26   27 ar
    51   26   63 1
    52   27   28 ar
    53   27   30 1
    54   28   29 ar
    55   28   64 1
    56   29   65 1
    57   30   31 2
    58   30   32 am
    59   32   33 1
    60   32   66 1
    61   33   34 1
    62   33   67 1
    63   33   68 1
    64   34   39 ar
    65   34   35 ar
    66   35   36 ar
    67   35   69 1
    68   36   37 ar
    69   36   70 1
    70   37   38 ar
    71   37   71 1
    72   38   39 ar
    73   38   40 1
    74   39   72 1
    75   40   41 2
    76   40   42 1
@<TRIPOS>MOLECULE
CHEMBL114987
   55    57     0     0     0
SMALL
USER_CHARGES

@<TRIPOS>ATOM
      1 C1          0.0180   -1.1779   -0.0044 C.1       1 <0>        -0.1862
      2 C2          0.0021   -0.0041    0.0020 C.1       1 <0>        -0.2084
      3 C3         -0.0179    1.4678    0.0101 C.3       1 <0>         0.2305
      4 N1          1.3565    1.9749   -0.0003 N.pl3     1 <0>        -0.6177
      5 C4          2.0316    2.2352   -1.2741 C.3       1 <0>         0.1734
      6 C5          1.7714    3.6575   -1.6991 C.ar      1 <0>        -0.2020
      7 C6          0.6705    3.9602   -2.4814 C.ar      1 <0>         0.0310
      8 C7          0.4757    5.2919   -2.8470 C.ar      1 <0>        -0.2847
      9 C8          1.3947    6.2762   -2.4138 C.ar      1 <0>         0.4057
     10 N2          2.4350    5.9233   -1.6627 N.ar      1 <0>        -0.4812
     11 C9          2.6302    4.6718   -1.3041 C.ar      1 <0>         0.1947
     12 N3          1.1926    7.5583   -2.7748 N.2       1 <0>        -0.5737
     13 C10         0.1708    7.9133   -3.5136 C.2       1 <0>         0.6564
     14 N4         -0.7614    7.0303   -3.9730 N.am      1 <0>        -0.6685
     15 C11        -0.6619    5.7136   -3.6741 C.2       1 <0>         0.5768
     16 O1         -1.4836    4.9104   -4.0756 O.2       1 <0>        -0.5077
     17 N5          0.0314    9.2370   -3.8405 N.pl3     1 <0>        -0.8198
     18 C12         2.0203    2.2090    1.1989 C.ar      1 <0>         0.2209
     19 C13         3.3243    2.6963    1.1874 C.ar      1 <0>        -0.2076
     20 C14         3.9839    2.9291    2.3725 C.ar      1 <0>        -0.0167
     21 C15         3.3431    2.6757    3.5888 C.ar      1 <0>        -0.1581
     22 C16         2.0335    2.1865    3.5970 C.ar      1 <0>        -0.0364
     23 C17         1.3773    1.9611    2.4086 C.ar      1 <0>        -0.1963
     24 C18         4.0474    2.9237    4.8610 C.2       1 <0>         0.5536
     25 O2          5.1866    3.3489    4.8524 O.2       1 <0>        -0.5609
     26 N6          3.4283    2.6790    6.0329 N.am      1 <0>        -0.6781
     27 C19         4.1278    2.9253    7.2963 C.3       1 <0>         0.0737
     28 C20         3.5306    2.0389    8.3911 C.3       1 <0>        -0.0810
     29 C21         3.7982    0.5693    8.0600 C.3       1 <0>        -0.1770
     30 C22         3.2100   -0.3037    9.1384 C.2       1 <0>         0.4910
     31 O3          2.6304    0.2025   10.0840 O.co2     1 <0>        -0.6977
     32 O4          3.3137   -1.5163    9.0651 O.co2     1 <0>        -0.7205
     33 C23         3.9726    4.3737    7.6824 C.2       1 <0>         0.4969
     34 O5          3.1926    5.0865    7.0741 O.co2     1 <0>        -0.6976
     35 O6          4.6271    4.8327    8.6029 O.co2     1 <0>        -0.7025
     36 H1          0.0322   -2.2278   -0.0102 H         1 <0>         0.2151
     37 H2         -0.5451    1.8289   -0.8729 H         1 <0>         0.0933
     38 H3         -0.5281    1.8193    0.9069 H         1 <0>         0.1027
     39 H4          3.1042    2.0821   -1.1549 H         1 <0>         0.0945
     40 H5          1.6495    1.5533   -2.0338 H         1 <0>         0.0863
     41 H6         -0.0159    3.1893   -2.7990 H         1 <0>         0.1440
     42 H7          3.4845    4.4281   -0.6900 H         1 <0>         0.1703
     43 H8          0.6809    9.8852   -3.5259 H         1 <0>         0.4313
     44 H9         -0.7166    9.5257   -4.3864 H         1 <0>         0.4135
     45 H10         3.8190    2.8915    0.2474 H         1 <0>         0.1225
     46 H11         4.9956    3.3068    2.3629 H         1 <0>         0.1351
     47 H12         1.5360    1.9894    4.5351 H         1 <0>         0.1285
     48 H13         0.3640    1.5876    2.4143 H         1 <0>         0.1230
     49 H14         2.5196    2.3398    6.0397 H         1 <0>         0.3885
     50 H15         5.1859    2.6924    7.1772 H         1 <0>         0.0774
     51 H16         3.9896    2.2851    9.3486 H         1 <0>         0.0761
     52 H17         2.4554    2.2082    8.4494 H         1 <0>         0.0557
     53 H18         3.3392    0.3231    7.1025 H         1 <0>         0.0508
     54 H19         4.8734    0.4000    8.0017 H         1 <0>         0.0524
     55 H20        -1.4995    7.3472   -4.5169 H         1 <0>         0.4145
@<TRIPOS>BOND
     1    1    2 3
     2    1   36 1
     3    2    3 1
     4    3    4 1
     5    3   37 1
     6    3   38 1
     7    4    5 1
     8    4   18 1
     9    5    6 1
    10    5   39 1
    11    5   40 1
    12    6   11 ar
    13    6    7 ar
    14    7    8 ar
    15    7   41 1
    16    8   15 1
    17    8    9 ar
    18    9   10 ar
    19    9   12 1
    20   10   11 ar
    21   11   42 1
    22   12   13 2
    23   13   14 1
    24   13   17 1
    25   14   15 am
    26   14   55 1
    27   15   16 2
    28   17   43 1
    29   17   44 1
    30   18   23 ar
    31   18   19 ar
    32   19   20 ar
    33   19   45 1
    34   20   21 ar
    35   20   46 1
    36   21   22 ar
    37   21   24 1
    38   22   23 ar
    39   22   47 1
    40   23   48 1
    41   24   25 2
    42   24   26 am
    43   26   27 1
    44   26   49 1
    45   27   28 1
    46   27   33 1
    47   27   50 1
    48   28   29 1
    49   28   51 1
    50   28   52 1
    51   29   30 1
    52   29   53 1
    53   29   54 1
    54   30   31 2
    55   30   32 1
    56   33   34 2
    57   33   35 1
@<TRIPOS>MOLECULE
CHEMBL114987__1
   55    57     0     0     0
SMALL
USER_CHARGES

@<TRIPOS>ATOM
      1 C1          0.0180   -1.1779   -0.0044 C.1       1 <0>        -0.1868
      2 C2          0.0021   -0.0041    0.0020 C.1       1 <0>        -0.2078
      3 C3         -0.0179    1.4678    0.0101 C.3       1 <0>         0.2302
      4 N1          1.3565    1.9749   -0.0003 N.pl3     1 <0>        -0.6175
      5 C4          2.0316    2.2352   -1.2741 C.3       1 <0>         0.1732
      6 C5          1.7714    3.6575   -1.6991 C.ar      1 <0>        -0.2021
      7 C6          0.6705    3.9602   -2.4814 C.ar      1 <0>         0.0313
      8 C7          0.4757    5.2919   -2.8470 C.ar      1 <0>        -0.2846
      9 C8          1.3947    6.2762   -2.4138 C.ar      1 <0>         0.4059
     10 N2          2.4350    5.9233   -1.6627 N.ar      1 <0>        -0.4817
     11 C9          2.6302    4.6718   -1.3041 C.ar      1 <0>         0.1943
     12 N3          1.1926    7.5583   -2.7748 N.2       1 <0>        -0.5742
     13 C10         0.1708    7.9133   -3.5136 C.2       1 <0>         0.6568
     14 N4         -0.7614    7.0303   -3.9730 N.am      1 <0>        -0.6684
     15 C11        -0.6619    5.7136   -3.6741 C.2       1 <0>         0.5767
     16 O1         -1.4836    4.9104   -4.0756 O.2       1 <0>        -0.5074
     17 N5          0.0314    9.2370   -3.8405 N.pl3     1 <0>        -0.8197
     18 C12         2.0203    2.2090    1.1989 C.ar      1 <0>         0.2217
     19 C13         3.3243    2.6963    1.1874 C.ar      1 <0>        -0.2077
     20 C14         3.9839    2.9291    2.3725 C.ar      1 <0>        -0.0164
     21 C15         3.3431    2.6757    3.5888 C.ar      1 <0>        -0.1600
     22 C16         2.0335    2.1865    3.5970 C.ar      1 <0>        -0.0359
     23 C17         1.3773    1.9611    2.4086 C.ar      1 <0>        -0.1963
     24 C18         4.0474    2.9237    4.8610 C.2       1 <0>         0.5489
     25 O2          5.1866    3.3489    4.8524 O.2       1 <0>        -0.5586
     26 N6          3.4283    2.6790    6.0329 N.am      1 <0>        -0.6788
     27 C19         4.1278    2.9253    7.2963 C.3       1 <0>         0.0745
     28 C20         3.1043    3.1811    8.4044 C.3       1 <0>        -0.0822
     29 C21         2.3414    4.4733    8.1056 C.3       1 <0>        -0.1768
     30 C22         1.3333    4.7253    9.1971 C.2       1 <0>         0.4911
     31 O3          1.2342    3.9438   10.1277 O.co2     1 <0>        -0.6980
     32 O4          0.6168    5.7106    9.1495 O.co2     1 <0>        -0.7201
     33 C23         4.9623    1.7217    7.6514 C.2       1 <0>         0.4985
     34 O5          5.9918    1.8605    8.2896 O.co2     1 <0>        -0.7025
     35 O6          4.6079    0.6092    7.3004 O.co2     1 <0>        -0.6992
     36 H1          0.0322   -2.2278   -0.0102 H         1 <0>         0.2150
     37 H2         -0.5451    1.8289   -0.8729 H         1 <0>         0.0936
     38 H3         -0.5281    1.8193    0.9069 H         1 <0>         0.1030
     39 H4          3.1042    2.0821   -1.1549 H         1 <0>         0.0946
     40 H5          1.6495    1.5533   -2.0338 H         1 <0>         0.0864
     41 H6         -0.0159    3.1893   -2.7990 H         1 <0>         0.1440
     42 H7          3.4845    4.4281   -0.6900 H         1 <0>         0.1702
     43 H8          0.6809    9.8852   -3.5259 H         1 <0>         0.4313
     44 H9         -0.7166    9.5257   -4.3864 H         1 <0>         0.4137
     45 H10         3.8190    2.8915    0.2474 H         1 <0>         0.1228
     46 H11         4.9956    3.3068    2.3629 H         1 <0>         0.1354
     47 H12         1.5360    1.9894    4.5351 H         1 <0>         0.1291
     48 H13         0.3640    1.5876    2.4143 H         1 <0>         0.1233
     49 H14         2.5196    2.3398    6.0397 H         1 <0>         0.3900
     50 H15         4.7738    3.7968    7.1901 H         1 <0>         0.0772
     51 H16         2.4033    2.3478    8.4510 H         1 <0>         0.0594
     52 H17         3.6197    3.2762    9.3602 H         1 <0>         0.0716
     53 H18         3.0424    5.3066    8.0590 H         1 <0>         0.0527
     54 H19         1.8260    4.3781    7.1499 H         1 <0>         0.0514
     55 H20        -1.4995    7.3472   -4.5169 H         1 <0>         0.4146
@<TRIPOS>BOND
     1    1    2 3
     2    1   36 1
     3    2    3 1
     4    3    4 1
     5    3   37 1
     6    3   38 1
     7    4    5 1
     8    4   18 1
     9    5    6 1
    10    5   39 1
    11    5   40 1
    12    6   11 ar
    13    6    7 ar
    14    7    8 ar
    15    7   41 1
    16    8   15 1
    17    8    9 ar
    18    9   10 ar
    19    9   12 1
    20   10   11 ar
    21   11   42 1
    22   12   13 2
    23   13   14 1
    24   13   17 1
    25   14   15 am
    26   14   55 1
    27   15   16 2
    28   17   43 1
    29   17   44 1
    30   18   23 ar
    31   18   19 ar
    32   19   20 ar
    33   19   45 1
    34   20   21 ar
    35   20   46 1
    36   21   22 ar
    37   21   24 1
    38   22   23 ar
    39   22   47 1
    40   23   48 1
    41   24   25 2
    42   24   26 am
    43   26   27 1
    44   26   49 1
    45   27   28 1
    46   27   33 1
    47   27   50 1
    48   28   29 1
    49   28   51 1
    50   28   52 1
    51   29   30 1
    52   29   53 1
    53   29   54 1
    54   30   31 2
    55   30   32 1
    56   33   34 2
    57   33   35 1
@<TRIPOS>MOLECULE
CHEMBL349448
   75    79     0     0     0
SMALL
USER_CHARGES

@<TRIPOS>ATOM
      1 C1         -3.0009   -0.8810   -1.3772 C.3       1 <0>        -0.1252
      2 C2         -2.3070    0.3696   -1.8521 C.ar      1 <0>        -0.0295
      3 C3         -1.6097    0.3513   -3.0394 C.ar      1 <0>        -0.1061
      4 C4         -0.9665    1.5088   -3.4814 C.ar      1 <0>         0.1582
      5 C5         -1.0419    2.6838   -2.7006 C.ar      1 <0>        -0.2022
      6 C6         -1.7525    2.6812   -1.5025 C.ar      1 <0>        -0.0215
      7 C7         -2.3834    1.5276   -1.0898 C.ar      1 <0>        -0.1342
      8 C8         -3.1585    1.5215    0.2025 C.3       1 <0>         0.1644
      9 N1         -3.0305    2.8269    0.8549 N.pl3     1 <0>        -0.6091
     10 C9         -3.9908    3.8923    0.5564 C.3       1 <0>         0.2254
     11 C10        -5.1223    3.8098    1.4943 C.1       1 <0>        -0.2216
     12 C11        -6.0248    3.7441    2.2423 C.1       1 <0>        -0.1675
     13 C12        -1.9976    3.0548    1.7575 C.ar      1 <0>         0.2736
     14 C13        -1.0184    2.0833    1.9523 C.ar      1 <0>        -0.2070
     15 C14        -0.0009    2.2994    2.8367 C.ar      1 <0>        -0.0090
     16 C15         0.0632    3.4995    3.5519 C.ar      1 <0>        -0.2370
     17 C16        -0.9193    4.4788    3.3584 C.ar      1 <0>         0.2153
     18 C17        -1.9417    4.2544    2.4590 C.ar      1 <0>        -0.2425
     19 F1         -0.8636    5.6405    4.0459 F         1 <0>        -0.1115
     20 C18         1.1611    3.7328    4.5069 C.2       1 <0>         0.5675
     21 O1          1.2151    4.7769    5.1280 O.2       1 <0>        -0.5254
     22 N2          2.1052    2.7889    4.6920 N.am      1 <0>        -0.7298
     23 C19         3.1966    3.0208    5.6414 C.3       1 <0>         0.1631
     24 C20         4.1090    1.8216    5.6606 C.ar      1 <0>        -0.1071
     25 C21         3.8667    0.7827    6.5402 C.ar      1 <0>        -0.0491
     26 C22         4.7035   -0.3172    6.5578 C.ar      1 <0>        -0.1158
     27 C23         5.7825   -0.3788    5.6956 C.ar      1 <0>        -0.0474
     28 C24         6.0242    0.6593    4.8157 C.ar      1 <0>        -0.0495
     29 C25         5.1846    1.7576    4.7951 C.ar      1 <0>        -0.0377
     30 N3          7.1797    0.5936    3.8930 N.pl3     1 <0>         0.0314
     31 O2          7.9121   -0.3681    3.9091 O.2       1 <0>        -0.1536
     32 O3          7.3911    1.5017    3.1234 O.3       1 <0>        -0.1548
     33 C26        -0.3530    3.8856   -3.1940 C.2       1 <0>         0.5520
     34 N4          0.3105    3.7850   -4.3693 N.am      1 <0>        -0.6529
     35 C27         0.3296    2.6121   -5.0548 C.2       1 <0>         0.3957
     36 N5         -0.2684    1.5353   -4.6443 N.2       1 <0>        -0.4901
     37 C28         1.0839    2.5582   -6.3583 C.3       1 <0>         0.0977
     38 N6          0.9775    1.2092   -6.9301 N.3       1 <0>        -0.5127
     39 C29         1.6738    0.2243   -6.0896 C.3       1 <0>         0.0139
     40 C30         1.4877   -1.1723   -6.6887 C.3       1 <0>         0.0667
     41 O4          1.9668   -1.1752   -8.0362 O.3       1 <0>        -0.3867
     42 C31         1.3100   -0.2281   -8.8829 C.3       1 <0>         0.0654
     43 C32         1.4944    1.1780   -8.3061 C.3       1 <0>         0.0158
     44 O5         -0.3789    4.9304   -2.5699 O.2       1 <0>        -0.5063
     45 H1         -4.0506   -0.8471   -1.6690 H         1 <0>         0.0809
     46 H2         -2.5266   -1.7530   -1.8274 H         1 <0>         0.0755
     47 H3         -2.9275   -0.9474   -0.2917 H         1 <0>         0.0731
     48 H4         -1.5604   -0.5544   -3.6257 H         1 <0>         0.1420
     49 H5         -1.8119    3.5778   -0.9034 H         1 <0>         0.1388
     50 H6         -4.2095    1.3205   -0.0051 H         1 <0>         0.0978
     51 H7         -2.7633    0.7467    0.8595 H         1 <0>         0.0981
     52 H8         -3.5025    4.8612    0.6605 H         1 <0>         0.1052
     53 H9         -4.3557    3.7770   -0.4642 H         1 <0>         0.1054
     54 H10        -6.8320    3.6853    2.9112 H         1 <0>         0.2186
     55 H11        -1.0645    1.1553    1.4018 H         1 <0>         0.1354
     56 H12         0.7552    1.5425    2.9843 H         1 <0>         0.1315
     57 H13        -2.6996    5.0078    2.3029 H         1 <0>         0.1431
     58 H14         2.0620    1.9561    4.1966 H         1 <0>         0.3996
     59 H15         3.7613    3.9022    5.3375 H         1 <0>         0.0861
     60 H16         2.7839    3.1795    6.6377 H         1 <0>         0.0886
     61 H17         3.0238    0.8308    7.2137 H         1 <0>         0.1470
     62 H18         4.5146   -1.1284    7.2454 H         1 <0>         0.1521
     63 H19         6.4368   -1.2379    5.7099 H         1 <0>         0.1562
     64 H20         5.3713    2.5671    4.1050 H         1 <0>         0.1558
     65 H21         0.6596    3.2822   -7.0539 H         1 <0>         0.1127
     66 H22         2.1328    2.7960   -6.1812 H         1 <0>         0.0729
     67 H23         2.7362    0.4651   -6.0509 H         1 <0>         0.0368
     68 H24         1.2580    0.2466   -5.0823 H         1 <0>         0.1088
     69 H25         2.0495   -1.8983   -6.1011 H         1 <0>         0.0967
     70 H26         0.4298   -1.4348   -6.6781 H         1 <0>         0.0628
     71 H27         1.7433   -0.2713   -9.8822 H         1 <0>         0.0995
     72 H28         0.2470   -0.4632   -8.9360 H         1 <0>         0.0617
     73 H29         0.9475    1.8965   -8.9166 H         1 <0>         0.0891
     74 H30         2.5539    1.4340   -8.3028 H         1 <0>         0.0463
     75 H31         0.7766    4.5574   -4.7257 H         1 <0>         0.4186
@<TRIPOS>BOND
     1    1   45 1
     2    1   46 1
     3    1   47 1
     4    1    2 1
     5    2    7 ar
     6    2    3 ar
     7    3   48 1
     8    3    4 ar
     9    4    5 ar
    10    4   36 1
    11    5   33 1
    12    5    6 ar
    13    6   49 1
    14    6    7 ar
    15    7    8 1
    16    8    9 1
    17    8   50 1
    18    8   51 1
    19    9   10 1
    20    9   13 1
    21   10   11 1
    22   10   52 1
    23   10   53 1
    24   11   12 3
    25   12   54 1
    26   13   18 ar
    27   13   14 ar
    28   14   15 ar
    29   14   55 1
    30   15   16 ar
    31   15   56 1
    32   16   17 ar
    33   16   20 1
    34   17   18 ar
    35   17   19 1
    36   18   57 1
    37   20   21 2
    38   20   22 am
    39   22   23 1
    40   22   58 1
    41   23   24 1
    42   23   59 1
    43   23   60 1
    44   24   29 ar
    45   24   25 ar
    46   25   26 ar
    47   25   61 1
    48   26   27 ar
    49   26   62 1
    50   27   28 ar
    51   27   63 1
    52   28   29 ar
    53   28   30 1
    54   29   64 1
    55   30   31 2
    56   30   32 1
    57   33   44 2
    58   33   34 am
    59   34   35 1
    60   34   75 1
    61   35   36 2
    62   35   37 1
    63   37   38 1
    64   37   65 1
    65   37   66 1
    66   38   43 1
    67   38   39 1
    68   39   40 1
    69   39   67 1
    70   39   68 1
    71   40   41 1
    72   40   69 1
    73   40   70 1
    74   41   42 1
    75   42   43 1
    76   42   71 1
    77   42   72 1
    78   43   73 1
    79   43   74 1
@<TRIPOS>MOLECULE
CHEMBL417222
   53    56     0     0     0
SMALL
USER_CHARGES

@<TRIPOS>ATOM
      1 C1         -0.0127    1.0858    0.0080 C.3       1 <0>        -0.1160
      2 C2         -0.7416    1.5850   -1.2129 C.2       1 <0>         0.4000
      3 N1         -1.2185    0.7107   -2.0459 N.2       1 <0>        -0.5216
      4 C3         -1.8861    1.0857   -3.1657 C.ar      1 <0>         0.1629
      5 C4         -2.3988    0.1458   -4.0622 C.ar      1 <0>        -0.1081
      6 C5         -3.0695    0.5713   -5.1866 C.ar      1 <0>        -0.0566
      7 C6         -3.2433    1.9255   -5.4417 C.ar      1 <0>        -0.1319
      8 C7         -2.7463    2.8716   -4.5724 C.ar      1 <0>        -0.0235
      9 C8         -2.0647    2.4620   -3.4282 C.ar      1 <0>        -0.2015
     10 C9         -1.5124    3.4258   -2.4648 C.2       1 <0>         0.5510
     11 N2         -0.8708    2.9268   -1.3826 N.am      1 <0>        -0.6536
     12 O1         -1.6315    4.6256   -2.6317 O.2       1 <0>        -0.5088
     13 C10        -3.9816    2.3636   -6.6802 C.3       1 <0>         0.1591
     14 N3         -5.4103    2.4850   -6.3798 N.pl3     1 <0>        -0.6088
     15 C11        -5.9528    3.7596   -5.9028 C.3       1 <0>         0.2274
     16 C12        -6.3771    4.5737   -7.0534 C.1       1 <0>        -0.2224
     17 C13        -6.7155    5.2230   -7.9711 C.1       1 <0>        -0.1681
     18 C14        -6.2553    1.3857   -6.5482 C.ar      1 <0>         0.2720
     19 C15        -5.7416    0.1749   -6.9950 C.ar      1 <0>        -0.2165
     20 C16        -6.5798   -0.9102   -7.1600 C.ar      1 <0>         0.0270
     21 C17        -7.9292   -0.7923   -6.8814 C.ar      1 <0>        -0.7118
     22 C18        -8.4438    0.4117   -6.4365 C.ar      1 <0>         0.0277
     23 C19        -7.6103    1.4992   -6.2639 C.ar      1 <0>        -0.2112
     24 S1         -8.9952   -2.1789   -7.0944 S.o2      1 <0>         2.5847
     25 O2        -10.3035   -1.6594   -7.2882 O.2       1 <0>        -0.9413
     26 O3         -8.3667   -3.0328   -8.0405 O.2       1 <0>        -0.9410
     27 C20        -9.0225   -3.0547   -5.5657 C.ar      1 <0>        -0.6569
     28 C21        -8.0987   -4.0546   -5.3254 C.ar      1 <0>        -0.0228
     29 C22        -8.1201   -4.7417   -4.1261 C.ar      1 <0>        -0.1393
     30 C23        -9.0651   -4.4286   -3.1669 C.ar      1 <0>        -0.0647
     31 C24        -9.9883   -3.4281   -3.4069 C.ar      1 <0>        -0.1396
     32 C25        -9.9642   -2.7381   -4.6045 C.ar      1 <0>        -0.0231
     33 H1          0.0021   -0.0041    0.0020 H         1 <0>         0.1065
     34 H2          1.0099    1.4631    0.0003 H         1 <0>         0.0952
     35 H3         -0.5229    1.4373    0.9048 H         1 <0>         0.0949
     36 H4         -2.2695   -0.9098   -3.8746 H         1 <0>         0.1427
     37 H5         -3.4651   -0.1569   -5.8791 H         1 <0>         0.1367
     38 H6         -2.8845    3.9233   -4.7760 H         1 <0>         0.1367
     39 H7         -0.4967    3.5327   -0.7240 H         1 <0>         0.4204
     40 H8         -3.5965    3.3283   -7.0106 H         1 <0>         0.0931
     41 H9         -3.8377    1.6254   -7.4692 H         1 <0>         0.0951
     42 H10        -6.8094    3.5705   -5.2559 H         1 <0>         0.1036
     43 H11        -5.1855    4.2941   -5.3427 H         1 <0>         0.1023
     44 H12        -7.0181    5.8037   -8.7919 H         1 <0>         0.2187
     45 H13        -4.6880    0.0823   -7.2134 H         1 <0>         0.1342
     46 H14        -6.1811   -1.8519   -7.5073 H         1 <0>         0.1417
     47 H15        -9.4982    0.5004   -6.2198 H         1 <0>         0.1407
     48 H16        -8.0121    2.4379   -5.9121 H         1 <0>         0.1324
     49 H17        -7.3605   -4.2992   -6.0747 H         1 <0>         0.1418
     50 H18        -7.3988   -5.5233   -3.9386 H         1 <0>         0.1340
     51 H19        -9.0823   -4.9659   -2.2302 H         1 <0>         0.1314
     52 H20       -10.7268   -3.1837   -2.6577 H         1 <0>         0.1337
     53 H21       -10.6831   -1.9539   -4.7905 H         1 <0>         0.1414
@<TRIPOS>BOND
     1    1   33 1
     2    1   34 1
     3    1   35 1
     4    1    2 1
     5    2    3 2
     6    2   11 1
     7    3    4 1
     8    4    9 ar
     9    4    5 ar
    10    5    6 ar
    11    5   36 1
    12    6    7 ar
    13    6   37 1
    14    7    8 ar
    15    7   13 1
    16    8    9 ar
    17    8   38 1
    18    9   10 1
    19   10   12 2
    20   10   11 am
    21   11   39 1
    22   13   14 1
    23   13   40 1
    24   13   41 1
    25   14   15 1
    26   14   18 1
    27   15   16 1
    28   15   42 1
    29   15   43 1
    30   16   17 3
    31   17   44 1
    32   18   23 ar
    33   18   19 ar
    34   19   20 ar
    35   19   45 1
    36   20   21 ar
    37   20   46 1
    38   21   22 ar
    39   21   24 1
    40   22   23 ar
    41   22   47 1
    42   23   48 1
    43   24   25 2
    44   24   26 2
    45   24   27 1
    46   27   32 ar
    47   27   28 ar
    48   28   29 ar
    49   28   49 1
    50   29   30 ar
    51   29   50 1
    52   30   31 ar
    53   30   51 1
    54   31   32 ar
    55   31   52 1
    56   32   53 1
@<TRIPOS>MOLECULE
CHEMBL55263
   45    48     0     0     0
SMALL
USER_CHARGES

@<TRIPOS>ATOM
      1 C1         -0.1354    1.5008    0.0243 C.3       1 <0>        -0.1542
      2 C2         -0.1071   -0.0059    0.0150 C.ar      1 <0>         0.0654
      3 C3         -0.2538   -0.6968   -1.1589 C.ar      1 <0>        -0.1682
      4 C4         -0.2356   -2.0886   -1.2277 C.ar      1 <0>         0.0628
      5 C5         -0.0633   -2.8302   -0.0733 C.ar      1 <0>        -0.1954
      6 C6          0.0863   -2.1161    1.1240 C.ar      1 <0>        -0.0596
      7 C7          0.0755   -0.7213    1.2067 C.ar      1 <0>        -0.0677
      8 C8          0.2451   -0.1515    2.4870 C.ar      1 <0>         0.2520
      9 C9          0.4146   -1.0020    3.5670 C.ar      1 <0>        -0.1267
     10 C10         0.4249   -2.3893    3.4429 C.ar      1 <0>        -0.0154
     11 C11         0.2509   -2.9776    2.2031 C.ar      1 <0>         0.0698
     12 N1          0.2080   -4.2766    1.7027 N.pl3     1 <0>        -0.5849
     13 C12         0.0194   -4.2433    0.3278 C.cat     1 <0>         0.5637
     14 N2         -0.0687   -5.2782   -0.4656 N.pl3     1 <0>        -0.7295
     15 N3          0.2427    1.2314    2.6598 N.pl3     1 <0>        -0.6748
     16 C13         1.4884    1.9894    2.5192 C.3       1 <0>         0.1008
     17 C14        -1.0057    1.9271    2.9821 C.3       1 <0>         0.1763
     18 C15        -1.1722    1.9929    4.4784 C.ar      1 <0>        -0.0654
     19 C16        -1.8293    0.9828    5.1646 C.ar      1 <0>        -0.1719
     20 C17        -1.9629    1.0775    6.5367 C.ar      1 <0>         0.1070
     21 N4         -1.4747    2.1125    7.1923 N.ar      1 <0>        -0.4814
     22 C18        -0.8444    3.0910    6.5728 C.ar      1 <0>         0.1352
     23 C19        -0.6671    3.0619    5.2023 C.ar      1 <0>        -0.1585
     24 C20        -0.3058    4.2517    7.3690 C.3       1 <0>        -0.1105
     25 H1          0.8846    1.8836   -0.0089 H         1 <0>         0.0990
     26 H2         -0.6864    1.8592   -0.8453 H         1 <0>         0.0806
     27 H3         -0.6250    1.8495    0.9336 H         1 <0>         0.1047
     28 H4         -0.3900   -0.1374   -2.0726 H         1 <0>         0.1517
     29 H5         -0.3560   -2.5860   -2.1788 H         1 <0>         0.1501
     30 H6          0.5448   -0.5704    4.5484 H         1 <0>         0.1473
     31 H7          0.5614   -3.0073    4.3180 H         1 <0>         0.1480
     32 H8         -0.2014   -5.1495   -1.4178 H         1 <0>         0.4509
     33 H9         -0.0014   -6.1750   -0.1021 H         1 <0>         0.4347
     34 H10         1.6082    2.3023    1.4820 H         1 <0>         0.0524
     35 H11         1.4532    2.8688    3.1622 H         1 <0>         0.0719
     36 H12         2.3307    1.3610    2.8087 H         1 <0>         0.0619
     37 H13        -0.9738    2.9378    2.5752 H         1 <0>         0.0951
     38 H14        -1.8459    1.3864    2.5465 H         1 <0>         0.0826
     39 H15        -2.2318    0.1331    4.6333 H         1 <0>         0.1281
     40 H16        -2.4733    0.2949    7.0785 H         1 <0>         0.1557
     41 H17        -0.1459    3.8642    4.7011 H         1 <0>         0.1341
     42 H18         0.7152    4.0345    7.6827 H         1 <0>         0.0807
     43 H19        -0.3130    5.1501    6.7518 H         1 <0>         0.0771
     44 H20        -0.9302    4.4100    8.2483 H         1 <0>         0.0806
     45 H21         0.2966   -5.0829    2.2346 H         1 <0>         0.4437
@<TRIPOS>BOND
     1    1    2 1
     2    1   25 1
     3    1   26 1
     4    1   27 1
     5    2    7 ar
     6    2    3 ar
     7    3    4 ar
     8    3   28 1
     9    4    5 ar
    10    4   29 1
    11    5   13 1
    12    5    6 ar
    13    6   11 ar
    14    6    7 ar
    15    7    8 ar
    16    8    9 ar
    17    8   15 1
    18    9   10 ar
    19    9   30 1
    20   10   11 ar
    21   10   31 1
    22   11   12 1
    23   12   13 1
    24   12   45 1
    25   13   14 2
    26   14   32 1
    27   14   33 1
    28   15   16 1
    29   15   17 1
    30   16   34 1
    31   16   35 1
    32   16   36 1
    33   17   18 1
    34   17   37 1
    35   17   38 1
    36   18   23 ar
    37   18   19 ar
    38   19   20 ar
    39   19   39 1
    40   20   21 ar
    41   20   40 1
    42   21   22 ar
    43   22   23 ar
    44   22   24 1
    45   23   41 1
    46   24   42 1
    47   24   43 1
    48   24   44 1
@<TRIPOS>MOLECULE
CHEMBL55263__1
   46    49     0     0     0
SMALL
USER_CHARGES

@<TRIPOS>ATOM
      1 C1         -0.1354    1.5008    0.0243 C.3       1 <0>        -0.1505
      2 C2         -0.1071   -0.0059    0.0150 C.ar      1 <0>         0.0536
      3 C3         -0.2538   -0.6968   -1.1589 C.ar      1 <0>        -0.1575
      4 C4         -0.2356   -2.0886   -1.2277 C.ar      1 <0>         0.0665
      5 C5         -0.0633   -2.8302   -0.0733 C.ar      1 <0>        -0.1917
      6 C6          0.0863   -2.1161    1.1240 C.ar      1 <0>        -0.0624
      7 C7          0.0755   -0.7213    1.2067 C.ar      1 <0>        -0.0586
      8 C8          0.2451   -0.1515    2.4870 C.ar      1 <0>         0.2269
      9 C9          0.4146   -1.0020    3.5670 C.ar      1 <0>        -0.1256
     10 C10         0.4249   -2.3893    3.4429 C.ar      1 <0>        -0.0301
     11 C11         0.2509   -2.9776    2.2031 C.ar      1 <0>         0.0919
     12 N1          0.2080   -4.2766    1.7027 N.pl3     1 <0>        -0.5915
     13 C12         0.0194   -4.2433    0.3278 C.cat     1 <0>         0.5709
     14 N2         -0.0687   -5.2782   -0.4656 N.pl3     1 <0>        -0.7188
     15 N3          0.2427    1.2314    2.6598 N.pl3     1 <0>        -0.6696
     16 C13         1.4884    1.9894    2.5192 C.3       1 <0>         0.0939
     17 C14        -1.0057    1.9271    2.9821 C.3       1 <0>         0.1562
     18 C15        -1.1722    1.9929    4.4784 C.ar      1 <0>         0.0177
     19 C16        -1.8293    0.9828    5.1646 C.ar      1 <0>        -0.1301
     20 C17        -1.9629    1.0775    6.5367 C.ar      1 <0>         0.1379
     21 N4         -1.4747    2.1125    7.1923 N.ar      1 <0>        -0.4480
     22 C18        -0.8444    3.0910    6.5728 C.ar      1 <0>         0.1779
     23 C19        -0.6671    3.0619    5.2023 C.ar      1 <0>        -0.1197
     24 C20        -0.3058    4.2517    7.3690 C.3       1 <0>        -0.1508
     25 H1          0.8846    1.8836   -0.0089 H         1 <0>         0.0995
     26 H2         -0.6864    1.8592   -0.8453 H         1 <0>         0.0844
     27 H3         -0.6250    1.8495    0.9336 H         1 <0>         0.0969
     28 H4         -0.3900   -0.1374   -2.0726 H         1 <0>         0.1555
     29 H5         -0.3560   -2.5860   -2.1788 H         1 <0>         0.1547
     30 H6          0.5448   -0.5704    4.5484 H         1 <0>         0.1394
     31 H7          0.5614   -3.0073    4.3180 H         1 <0>         0.1495
     32 H8         -0.2014   -5.1495   -1.4178 H         1 <0>         0.4542
     33 H9         -0.0014   -6.1750   -0.1021 H         1 <0>         0.4384
     34 H10         1.6082    2.3023    1.4820 H         1 <0>         0.0621
     35 H11         1.4532    2.8688    3.1622 H         1 <0>         0.0714
     36 H12         2.3307    1.3610    2.8087 H         1 <0>         0.0699
     37 H13        -0.9738    2.9378    2.5752 H         1 <0>         0.1155
     38 H14        -1.8459    1.3864    2.5465 H         1 <0>         0.1042
     39 H15        -2.2318    0.1331    4.6333 H         1 <0>         0.1798
     40 H16        -2.4733    0.2949    7.0785 H         1 <0>         0.2109
     41 H17        -0.1459    3.8642    4.7011 H         1 <0>         0.1843
     42 H18         0.7152    4.0345    7.6827 H         1 <0>         0.1197
     43 H19        -0.3130    5.1501    6.7518 H         1 <0>         0.1207
     44 H20        -0.9302    4.4100    8.2483 H         1 <0>         0.1023
     45 H21         0.2966   -5.0829    2.2346 H         1 <0>         0.4465
     46 H22        -1.5825    2.1552    8.1553 H         1 <0>         0.4516
@<TRIPOS>BOND
     1    1    2 1
     2    1   25 1
     3    1   26 1
     4    1   27 1
     5    2    7 ar
     6    2    3 ar
     7    3    4 ar
     8    3   28 1
     9    4    5 ar
    10    4   29 1
    11    5   13 1
    12    5    6 ar
    13    6   11 ar
    14    6    7 ar
    15    7    8 ar
    16    8    9 ar
    17    8   15 1
    18    9   10 ar
    19    9   30 1
    20   10   11 ar
    21   10   31 1
    22   11   12 1
    23   12   13 1
    24   12   45 1
    25   13   14 2
    26   14   32 1
    27   14   33 1
    28   15   16 1
    29   15   17 1
    30   16   34 1
    31   16   35 1
    32   16   36 1
    33   17   18 1
    34   17   37 1
    35   17   38 1
    36   18   23 ar
    37   18   19 ar
    38   19   20 ar
    39   19   39 1
    40   20   21 ar
    41   20   40 1
    42   21   22 ar
    43   21   46 1
    44   22   23 ar
    45   22   24 1
    46   23   41 1
    47   24   42 1
    48   24   43 1
    49   24   44 1
@<TRIPOS>MOLECULE
CHEMBL422395
   56    58     0     0     0
SMALL
USER_CHARGES

@<TRIPOS>ATOM
      1 C1          0.0180   -1.1779   -0.0044 C.1       1 <0>        -0.1902
      2 C2          0.0021   -0.0041    0.0020 C.1       1 <0>        -0.2065
      3 C3         -0.0179    1.4678    0.0101 C.3       1 <0>         0.2310
      4 N1          1.3565    1.9749   -0.0003 N.pl3     1 <0>        -0.6169
      5 C4          2.0316    2.2352   -1.2741 C.3       1 <0>         0.1673
      6 C5          1.7714    3.6575   -1.6991 C.ar      1 <0>        -0.1455
      7 C6          0.6630    3.9477   -2.4841 C.ar      1 <0>        -0.0480
      8 C7          0.4010    5.2275   -2.8849 C.ar      1 <0>        -0.1324
      9 C8          1.2588    6.2620   -2.5005 C.ar      1 <0>         0.2060
     10 C9          2.3855    5.9629   -1.7013 C.ar      1 <0>        -0.2256
     11 C10         2.6261    4.6487   -1.3027 C.ar      1 <0>        -0.0084
     12 C11         3.2719    7.0676   -1.3110 C.2       1 <0>         0.5636
     13 O1          4.2578    6.8731   -0.6240 O.2       1 <0>        -0.4948
     14 N2          2.9521    8.3092   -1.7438 N.am      1 <0>        -0.6685
     15 C12         1.8435    8.5112   -2.5133 C.2       1 <0>         0.6386
     16 N3          1.0381    7.5442   -2.8749 N.2       1 <0>        -0.5908
     17 N4          1.5595    9.7880   -2.9281 N.pl3     1 <0>        -0.8282
     18 C13         2.0203    2.2090    1.1989 C.ar      1 <0>         0.2219
     19 C14         3.3243    2.6963    1.1874 C.ar      1 <0>        -0.2045
     20 C15         3.9839    2.9291    2.3725 C.ar      1 <0>        -0.0168
     21 C16         3.3431    2.6757    3.5888 C.ar      1 <0>        -0.1590
     22 C17         2.0335    2.1865    3.5970 C.ar      1 <0>        -0.0382
     23 C18         1.3773    1.9611    2.4086 C.ar      1 <0>        -0.1977
     24 C19         4.0474    2.9237    4.8610 C.2       1 <0>         0.5561
     25 O2          5.1866    3.3489    4.8524 O.2       1 <0>        -0.5602
     26 N5          3.4283    2.6790    6.0329 N.am      1 <0>        -0.6797
     27 C20         4.1278    2.9253    7.2963 C.3       1 <0>         0.0737
     28 C21         3.1043    3.1811    8.4044 C.3       1 <0>        -0.0799
     29 C22         2.3414    4.4733    8.1056 C.3       1 <0>        -0.1775
     30 C23         1.3333    4.7253    9.1971 C.2       1 <0>         0.4910
     31 O3          1.2342    3.9438   10.1277 O.co2     1 <0>        -0.6974
     32 O4          0.6168    5.7106    9.1495 O.co2     1 <0>        -0.7210
     33 C24         4.9623    1.7217    7.6514 C.2       1 <0>         0.4956
     34 O5          4.9718    0.7484    6.9171 O.co2     1 <0>        -0.6967
     35 O6          5.6279    1.7212    8.6729 O.co2     1 <0>        -0.7020
     36 H1          0.0322   -2.2278   -0.0102 H         1 <0>         0.2144
     37 H2         -0.5451    1.8289   -0.8729 H         1 <0>         0.0946
     38 H3         -0.5281    1.8193    0.9069 H         1 <0>         0.1021
     39 H4          3.1042    2.0821   -1.1549 H         1 <0>         0.0881
     40 H5          1.6495    1.5533   -2.0338 H         1 <0>         0.0836
     41 H6         -0.0013    3.1502   -2.7825 H         1 <0>         0.1280
     42 H7         -0.4643    5.4386   -3.4959 H         1 <0>         0.1348
     43 H8          3.4831    4.4148   -0.6886 H         1 <0>         0.1400
     44 H9          2.1412   10.5213   -2.6735 H         1 <0>         0.4118
     45 H10         0.7771    9.9573   -3.4759 H         1 <0>         0.4264
     46 H11         3.8190    2.8915    0.2474 H         1 <0>         0.1223
     47 H12         4.9956    3.3068    2.3629 H         1 <0>         0.1334
     48 H13         1.5360    1.9894    4.5351 H         1 <0>         0.1277
     49 H14         0.3640    1.5876    2.4143 H         1 <0>         0.1228
     50 H15         2.5196    2.3398    6.0397 H         1 <0>         0.3877
     51 H16         4.7738    3.7968    7.1901 H         1 <0>         0.0767
     52 H17         2.4033    2.3478    8.4510 H         1 <0>         0.0543
     53 H18         3.6197    3.2762    9.3602 H         1 <0>         0.0780
     54 H19         3.0424    5.3066    8.0590 H         1 <0>         0.0518
     55 H20         1.8260    4.3781    7.1499 H         1 <0>         0.0503
     56 H21         3.5154    9.0618   -1.5048 H         1 <0>         0.4131
@<TRIPOS>BOND
     1    1    2 3
     2    1   36 1
     3    2    3 1
     4    3    4 1
     5    3   37 1
     6    3   38 1
     7    4    5 1
     8    4   18 1
     9    5    6 1
    10    5   39 1
    11    5   40 1
    12    6   11 ar
    13    6    7 ar
    14    7    8 ar
    15    7   41 1
    16    8    9 ar
    17    8   42 1
    18    9   16 1
    19    9   10 ar
    20   10   11 ar
    21   10   12 1
    22   11   43 1
    23   12   13 2
    24   12   14 am
    25   14   15 1
    26   14   56 1
    27   15   16 2
    28   15   17 1
    29   17   44 1
    30   17   45 1
    31   18   23 ar
    32   18   19 ar
    33   19   20 ar
    34   19   46 1
    35   20   21 ar
    36   20   47 1
    37   21   22 ar
    38   21   24 1
    39   22   23 ar
    40   22   48 1
    41   23   49 1
    42   24   25 2
    43   24   26 am
    44   26   27 1
    45   26   50 1
    46   27   28 1
    47   27   33 1
    48   27   51 1
    49   28   29 1
    50   28   52 1
    51   28   53 1
    52   29   30 1
    53   29   54 1
    54   29   55 1
    55   30   31 2
    56   30   32 1
    57   33   34 2
    58   33   35 1
@<TRIPOS>MOLECULE
CHEMBL139442
   61    63     0     0     0
SMALL
USER_CHARGES

@<TRIPOS>ATOM
      1 C1         -0.0178    1.4608    0.0101 C.3       1 <0>         0.0932
      2 N1          0.0021   -0.0041    0.0020 N.pl3     1 <0>        -1.0689
      3 C2          0.0241   -0.7433    1.2666 C.3       1 <0>         0.1107
      4 C3         -1.3640   -0.6973    1.9085 C.3       1 <0>        -0.1422
      5 C4         -1.3409   -1.4694    3.2293 C.3       1 <0>        -0.1317
      6 C5         -2.7290   -1.4234    3.8711 C.3       1 <0>        -0.0347
      7 Cl1        -2.7019   -2.3332    5.4275 Cl        1 <0>        -0.1803
      8 P1         -0.0004   -0.8164   -1.4227 P.3       1 <0>         2.5002
      9 O1         -0.0241    0.1513   -2.5423 O.2       1 <0>        -1.0509
     10 O2         -1.3030   -1.7593   -1.5006 O.3       1 <0>        -0.7528
     11 C6         -2.6162   -1.2535   -1.7488 C.3       1 <0>         0.2022
     12 C7         -3.6007   -2.3945   -1.7578 C.2       1 <0>         0.0530
     13 C8         -4.2731   -2.8617   -0.6906 C.2       1 <0>        -0.1849
     14 C9         -5.0799   -3.9282   -1.1495 C.2       1 <0>        -0.0804
     15 C10        -4.8521   -4.0489   -2.4697 C.2       1 <0>         0.0169
     16 O3         -3.9597   -3.1136   -2.8337 O.3       1 <0>        -0.1381
     17 N2         -5.4831   -5.0404   -3.3700 N.pl3     1 <0>         0.0666
     18 O4         -6.2809   -5.8350   -2.9298 O.2       1 <0>        -0.1187
     19 O5         -5.2005   -5.0555   -4.5454 O.3       1 <0>        -0.1217
     20 O6          1.3258   -1.7235   -1.5255 O.3       1 <0>        -0.7495
     21 C11         2.6337   -1.1735   -1.6951 C.3       1 <0>         0.1335
     22 C12         3.6598   -2.3069   -1.7543 C.3       1 <0>         0.0762
     23 C13         5.0799   -1.7348   -1.9926 C.3       1 <0>         0.0806
     24 C14         5.9580   -2.8642   -1.3881 C.3       1 <0>        -0.1992
     25 C15         5.0865   -3.3652   -0.2164 C.3       1 <0>         0.2970
     26 O7          3.7340   -2.9790   -0.4870 O.3       1 <0>        -0.3512
     27 N3          5.1767   -4.8241   -0.1182 N.am      1 <0>        -0.5258
     28 C16         4.6945   -5.6043   -1.1370 C.2       1 <0>         0.1432
     29 C17         4.7781   -6.9493   -1.0455 C.2       1 <0>        -0.0643
     30 C18         5.3658   -7.5263    0.1081 C.2       1 <0>         0.5413
     31 O8          5.4528   -8.7365    0.2134 O.2       1 <0>        -0.4841
     32 N4          5.8279   -6.7232    1.0876 N.am      1 <0>        -0.6478
     33 H1          6.2312   -7.1110    1.8799 H         1 <0>         0.4410
     34 C19         5.7370   -5.3856    0.9684 C.2       1 <0>         0.7036
     35 O9          6.1631   -4.6745    1.8580 O.2       1 <0>        -0.5271
     36 F1          4.3077   -7.7338   -2.0397 F         1 <0>        -0.0982
     37 O10         5.3414   -1.5700   -3.3878 O.3       1 <0>        -0.5443
     38 H2          1.0048    1.8381    0.0023 H         1 <0>         0.0528
     39 H3         -0.5450    1.8219   -0.8730 H         1 <0>         0.0835
     40 H4         -0.5280    1.8123    0.9069 H         1 <0>         0.0678
     41 H5          0.3025   -1.7799    1.0767 H         1 <0>         0.0746
     42 H6          0.7511   -0.2895    1.9402 H         1 <0>         0.0805
     43 H7         -1.6423    0.3393    2.0984 H         1 <0>         0.0771
     44 H8         -2.0909   -1.1512    1.2350 H         1 <0>         0.0653
     45 H9         -1.0626   -2.5060    3.0394 H         1 <0>         0.0783
     46 H10        -0.6140   -1.0155    3.9028 H         1 <0>         0.0806
     47 H11        -3.0073   -0.3868    4.0610 H         1 <0>         0.0937
     48 H12        -3.4560   -1.8772    3.1976 H         1 <0>         0.0914
     49 H13        -2.8872   -0.5460   -0.9651 H         1 <0>         0.1075
     50 H14        -2.6350   -0.7498   -2.7152 H         1 <0>         0.1072
     51 H15        -4.2091   -2.4929    0.3225 H         1 <0>         0.1773
     52 H16        -5.7501   -4.5306   -0.5543 H         1 <0>         0.1853
     53 H17         2.6700   -0.6018   -2.6224 H         1 <0>         0.1007
     54 H18         2.8641   -0.5184   -0.8550 H         1 <0>         0.0712
     55 H19         3.3976   -3.0130   -2.5422 H         1 <0>         0.1048
     56 H20         5.2210   -0.7972   -1.4550 H         1 <0>         0.0932
     57 H21         6.1233   -3.6587   -2.1159 H         1 <0>         0.1033
     58 H22         6.9054   -2.4665   -1.0245 H         1 <0>         0.1114
     59 H23         5.4219   -2.9093    0.7151 H         1 <0>         0.1502
     60 H24         4.2498   -5.1460   -2.0079 H         1 <0>         0.1858
     61 H25         6.2189   -1.2144   -3.5842 H         1 <0>         0.3944
@<TRIPOS>BOND
     1    1    2 1
     2    1   38 1
     3    1   39 1
     4    1   40 1
     5    2    3 1
     6    2    8 1
     7    3    4 1
     8    3   41 1
     9    3   42 1
    10    4    5 1
    11    4   43 1
    12    4   44 1
    13    5    6 1
    14    5   45 1
    15    5   46 1
    16    6    7 1
    17    6   47 1
    18    6   48 1
    19    8    9 2
    20    8   10 1
    21    8   20 1
    22   10   11 1
    23   11   12 1
    24   11   49 1
    25   11   50 1
    26   12   16 1
    27   12   13 2
    28   13   14 1
    29   13   51 1
    30   14   15 2
    31   14   52 1
    32   15   16 1
    33   15   17 1
    34   17   18 2
    35   17   19 1
    36   20   21 1
    37   21   22 1
    38   21   53 1
    39   21   54 1
    40   22   26 1
    41   22   23 1
    42   22   55 1
    43   23   24 1
    44   23   37 1
    45   23   56 1
    46   24   25 1
    47   24   57 1
    48   24   58 1
    49   25   26 1
    50   25   27 1
    51   25   59 1
    52   27   34 am
    53   27   28 1
    54   28   29 2
    55   28   60 1
    56   29   30 1
    57   29   36 1
    58   30   31 2
    59   30   32 am
    60   32   33 1
    61   32   34 am
    62   34   35 2
    63   37   61 1
@<TRIPOS>MOLECULE
CHEMBL57420
   41    44     0     0     0
SMALL
USER_CHARGES

@<TRIPOS>ATOM
      1 C1         -0.1353    1.5008    0.0242 C.3       1 <0>        -0.1540
      2 C2         -0.1070   -0.0059    0.0150 C.ar      1 <0>         0.0645
      3 C3         -0.2536   -0.6968   -1.1589 C.ar      1 <0>        -0.1669
      4 C4         -0.2355   -2.0886   -1.2277 C.ar      1 <0>         0.0635
      5 C5         -0.0632   -2.8302   -0.0733 C.ar      1 <0>        -0.1950
      6 C6          0.0863   -2.1161    1.1240 C.ar      1 <0>        -0.0597
      7 C7          0.0755   -0.7213    1.2067 C.ar      1 <0>        -0.0662
      8 C8          0.2451   -0.1515    2.4870 C.ar      1 <0>         0.2487
      9 C9          0.4145   -1.0020    3.5670 C.ar      1 <0>        -0.1282
     10 C10         0.4248   -2.3893    3.4429 C.ar      1 <0>        -0.0166
     11 C11         0.2509   -2.9776    2.2031 C.ar      1 <0>         0.0728
     12 N1          0.2080   -4.2766    1.7027 N.pl3     1 <0>        -0.5857
     13 C12         0.0194   -4.2433    0.3277 C.cat     1 <0>         0.5648
     14 N2         -0.0686   -5.2782   -0.4656 N.pl3     1 <0>        -0.7283
     15 N3          0.2427    1.2314    2.6598 N.pl3     1 <0>        -0.6750
     16 C13         1.4884    1.9894    2.5192 C.3       1 <0>         0.0986
     17 C14        -1.0057    1.9271    2.9821 C.3       1 <0>         0.1784
     18 C15        -1.1722    1.9929    4.4784 C.ar      1 <0>        -0.1128
     19 C16        -1.8296    0.9836    5.1705 C.ar      1 <0>        -0.1090
     20 C17        -1.9468    1.1083    6.5456 C.ar      1 <0>         0.0420
     21 N4         -1.4406    2.1637    7.1549 N.ar      1 <0>        -0.2358
     22 N5         -0.8332    3.0962    6.5154 N.ar      1 <0>        -0.2364
     23 C18        -0.6693    3.0592    5.2065 C.ar      1 <0>         0.0542
     24 H1          0.8847    1.8836   -0.0088 H         1 <0>         0.0996
     25 H2         -0.6862    1.8592   -0.8453 H         1 <0>         0.0814
     26 H3         -0.6249    1.8495    0.9336 H         1 <0>         0.1038
     27 H4         -0.3898   -0.1374   -2.0727 H         1 <0>         0.1523
     28 H5         -0.3558   -2.5860   -2.1788 H         1 <0>         0.1507
     29 H6          0.5447   -0.5704    4.5484 H         1 <0>         0.1453
     30 H7          0.5613   -3.0073    4.3180 H         1 <0>         0.1486
     31 H8         -0.2013   -5.1495   -1.4178 H         1 <0>         0.4513
     32 H9         -0.0013   -6.1750   -0.1021 H         1 <0>         0.4351
     33 H10         1.6082    2.3023    1.4820 H         1 <0>         0.0551
     34 H11         1.4532    2.8688    3.1622 H         1 <0>         0.0731
     35 H12         2.3307    1.3610    2.8087 H         1 <0>         0.0635
     36 H13        -0.9738    2.9378    2.5752 H         1 <0>         0.1018
     37 H14        -1.8459    1.3864    2.5465 H         1 <0>         0.0876
     38 H15        -2.2372    0.1280    4.6526 H         1 <0>         0.1447
     39 H16        -2.4517    0.3437    7.1173 H         1 <0>         0.1736
     40 H17        -0.1484    3.8604    4.7034 H         1 <0>         0.1709
     41 H18         0.2966   -5.0829    2.2346 H         1 <0>         0.4441
@<TRIPOS>BOND
     1    1    2 1
     2    1   24 1
     3    1   25 1
     4    1   26 1
     5    2    7 ar
     6    2    3 ar
     7    3    4 ar
     8    3   27 1
     9    4    5 ar
    10    4   28 1
    11    5   13 1
    12    5    6 ar
    13    6   11 ar
    14    6    7 ar
    15    7    8 ar
    16    8    9 ar
    17    8   15 1
    18    9   10 ar
    19    9   29 1
    20   10   11 ar
    21   10   30 1
    22   11   12 1
    23   12   13 1
    24   12   41 1
    25   13   14 2
    26   14   31 1
    27   14   32 1
    28   15   16 1
    29   15   17 1
    30   16   33 1
    31   16   34 1
    32   16   35 1
    33   17   18 1
    34   17   36 1
    35   17   37 1
    36   18   23 ar
    37   18   19 ar
    38   19   20 ar
    39   19   38 1
    40   20   21 ar
    41   20   39 1
    42   21   22 ar
    43   22   23 ar
    44   23   40 1
@<TRIPOS>MOLECULE
CHEMBL126648
   62    65     0     0     0
SMALL
USER_CHARGES

@<TRIPOS>ATOM
      1 C1         -3.0009   -0.8810   -1.3772 C.3       1 <0>        -0.1237
      2 C2         -2.3070    0.3696   -1.8521 C.ar      1 <0>        -0.0307
      3 C3         -1.6097    0.3513   -3.0394 C.ar      1 <0>        -0.1113
      4 C4         -0.9665    1.5088   -3.4814 C.ar      1 <0>         0.1561
      5 C5         -1.0419    2.6838   -2.7006 C.ar      1 <0>        -0.2014
      6 C6         -1.7525    2.6812   -1.5025 C.ar      1 <0>        -0.0173
      7 C7         -2.3834    1.5276   -1.0898 C.ar      1 <0>        -0.1293
      8 C8         -3.1585    1.5215    0.2025 C.3       1 <0>         0.1675
      9 N1         -3.0305    2.8269    0.8549 N.pl3     1 <0>        -0.6176
     10 C9         -3.9908    3.8923    0.5564 C.3       1 <0>         0.2277
     11 C10        -5.1223    3.8098    1.4943 C.1       1 <0>        -0.2080
     12 C11        -6.0248    3.7441    2.2423 C.1       1 <0>        -0.1855
     13 C12        -1.9976    3.0548    1.7575 C.ar      1 <0>         0.2479
     14 C13        -1.0184    2.0833    1.9523 C.ar      1 <0>        -0.2036
     15 C14        -0.0009    2.2994    2.8367 C.ar      1 <0>        -0.0110
     16 C15         0.0632    3.4995    3.5519 C.ar      1 <0>        -0.1977
     17 C16        -0.9193    4.4788    3.3584 C.ar      1 <0>         0.2006
     18 C17        -1.9417    4.2544    2.4590 C.ar      1 <0>        -0.2406
     19 F1         -0.8636    5.6405    4.0459 F         1 <0>        -0.1143
     20 C18         1.1611    3.7328    4.5069 C.2       1 <0>         0.5580
     21 O1          1.2151    4.7769    5.1280 O.2       1 <0>        -0.5446
     22 N2          2.1052    2.7889    4.6920 N.am      1 <0>        -0.6819
     23 C19         3.1966    3.0208    5.6414 C.3       1 <0>         0.0797
     24 H1          2.8247    3.5967    6.4889 H         1 <0>         0.0828
     25 C20         3.7369    1.6774    6.1354 C.3       1 <0>        -0.0943
     26 C21         2.6515    0.9541    6.9352 C.3       1 <0>         0.0007
     27 C22         3.1838   -0.3692    7.4218 C.2       1 <0>         0.0667
     28 N3          3.8085   -0.5962    8.5681 N.2       1 <0>        -0.3892
     29 N4          4.1021   -1.8509    8.6100 N.2       1 <0>        -0.2097
     30 N5          3.6834   -2.4159    7.5315 N.2       1 <0>        -0.2106
     31 N6          3.1120   -1.5308    6.7883 N.2       1 <0>        -0.3927
     32 C23         4.3011    3.7865    4.9597 C.2       1 <0>         0.4943
     33 O2          4.1873    4.1086    3.7893 O.co2     1 <0>        -0.6926
     34 O3          5.3087    4.0839    5.5785 O.co2     1 <0>        -0.7001
     35 C24        -0.3530    3.8856   -3.1940 C.2       1 <0>         0.5485
     36 N7          0.3105    3.7850   -4.3693 N.am      1 <0>        -0.6547
     37 C25         0.3296    2.6121   -5.0548 C.2       1 <0>         0.3933
     38 N8         -0.2684    1.5353   -4.6443 N.2       1 <0>        -0.5228
     39 C26         1.0839    2.5582   -6.3583 C.3       1 <0>        -0.1099
     40 O4         -0.3789    4.9304   -2.5699 O.2       1 <0>        -0.5019
     41 H2         -4.0506   -0.8471   -1.6690 H         1 <0>         0.0773
     42 H3         -2.5266   -1.7530   -1.8274 H         1 <0>         0.0735
     43 H4         -2.9275   -0.9474   -0.2917 H         1 <0>         0.0765
     44 H5         -1.5604   -0.5544   -3.6257 H         1 <0>         0.1389
     45 H6         -1.8119    3.5778   -0.9034 H         1 <0>         0.1424
     46 H7         -4.2095    1.3205   -0.0051 H         1 <0>         0.0917
     47 H8         -2.7633    0.7467    0.8595 H         1 <0>         0.0992
     48 H9         -3.5025    4.8612    0.6605 H         1 <0>         0.1035
     49 H10        -4.3557    3.7770   -0.4642 H         1 <0>         0.0988
     50 H11        -6.8320    3.6853    2.9112 H         1 <0>         0.2156
     51 H12        -1.0645    1.1553    1.4018 H         1 <0>         0.1303
     52 H13         0.7552    1.5425    2.9843 H         1 <0>         0.1385
     53 H14        -2.6996    5.0078    2.3029 H         1 <0>         0.1350
     54 H15         2.0620    1.9561    4.1966 H         1 <0>         0.3891
     55 H16         4.0268    1.0660    5.2808 H         1 <0>         0.0565
     56 H17         4.6053    1.8469    6.7720 H         1 <0>         0.0807
     57 H18         2.3617    1.5655    7.7898 H         1 <0>         0.0627
     58 H19         1.7832    0.7845    6.2986 H         1 <0>         0.0605
     59 H20         2.1163    2.2645   -6.1687 H         1 <0>         0.0987
     60 H21         0.6146    1.8299   -7.0198 H         1 <0>         0.1019
     61 H22         1.0664    3.5410   -6.8292 H         1 <0>         0.0845
     62 H23         0.7766    4.5574   -4.7257 H         1 <0>         0.4175
@<TRIPOS>BOND
     1    1   41 1
     2    1   42 1
     3    1   43 1
     4    1    2 1
     5    2    7 ar
     6    2    3 ar
     7    3   44 1
     8    3    4 ar
     9    4    5 ar
    10    4   38 1
    11    5   35 1
    12    5    6 ar
    13    6   45 1
    14    6    7 ar
    15    7    8 1
    16    8    9 1
    17    8   46 1
    18    8   47 1
    19    9   10 1
    20    9   13 1
    21   10   11 1
    22   10   48 1
    23   10   49 1
    24   11   12 3
    25   12   50 1
    26   13   18 ar
    27   13   14 ar
    28   14   15 ar
    29   14   51 1
    30   15   16 ar
    31   15   52 1
    32   16   17 ar
    33   16   20 1
    34   17   18 ar
    35   17   19 1
    36   18   53 1
    37   20   21 2
    38   20   22 am
    39   22   23 1
    40   22   54 1
    41   23   24 1
    42   23   25 1
    43   23   32 1
    44   25   26 1
    45   25   55 1
    46   25   56 1
    47   26   57 1
    48   26   58 1
    49   26   27 1
    50   27   28 2
    51   27   31 1
    52   28   29 1
    53   29   30 2
    54   30   31 1
    55   32   33 2
    56   32   34 1
    57   35   40 2
    58   35   36 am
    59   36   37 1
    60   36   62 1
    61   37   38 2
    62   37   39 1
    63   39   59 1
    64   39   60 1
    65   39   61 1
@<TRIPOS>MOLECULE
CHEMBL747
   32    33     0     0     0
SMALL
USER_CHARGES

@<TRIPOS>ATOM
      1 C1         -0.6687    1.4673    1.0653 C.3       1 <0>        -0.1731
      2 C2         -0.3851    0.0753    0.4972 C.3       1 <0>         0.4024
      3 N1         -1.5216   -0.8118    0.7711 N.pl3     1 <0>        -0.6957
      4 C3         -1.3272   -2.0840    0.9958 C.cat     1 <0>         0.7287
      5 N2         -0.0959   -2.6212    1.0299 N.2       1 <0>        -0.6361
      6 C4          0.9774   -1.8548    1.0901 C.2       1 <0>         0.7312
      7 N3          0.8089   -0.4905    1.1441 N.pl3     1 <0>        -0.5947
      8 C5          1.7401    0.3297    1.7908 C.ar      1 <0>         0.0910
      9 C6          1.6724    0.5086    3.1663 C.ar      1 <0>        -0.0872
     10 C7          2.5927    1.3187    3.8022 C.ar      1 <0>        -0.0952
     11 C8          3.5813    1.9521    3.0698 C.ar      1 <0>        -0.0119
     12 C9          3.6510    1.7755    1.6990 C.ar      1 <0>        -0.0951
     13 C10         2.7370    0.9616    1.0591 C.ar      1 <0>        -0.0941
     14 Cl1         4.7358    2.9706    3.8720 Cl        1 <0>        -0.0357
     15 N4          2.2290   -2.4049    1.0990 N.pl3     1 <0>        -0.7693
     16 N5         -2.4198   -2.9011    1.2051 N.pl3     1 <0>        -0.7913
     17 C11        -0.1569    0.1712   -1.0127 C.3       1 <0>        -0.1812
     18 H1          0.1491    2.1394    0.8053 H         1 <0>         0.1015
     19 H2         -1.5996    1.8483    0.6455 H         1 <0>         0.0996
     20 H3         -0.7575    1.4058    2.1500 H         1 <0>         0.0830
     21 H4          0.9006    0.0151    3.7383 H         1 <0>         0.1366
     22 H5          2.5405    1.4582    4.8718 H         1 <0>         0.1498
     23 H6          4.4234    2.2713    1.1297 H         1 <0>         0.1515
     24 H7          2.7948    0.8202   -0.0101 H         1 <0>         0.1442
     25 H8          2.3380   -3.3637    1.0004 H         1 <0>         0.4413
     26 H9          3.0079   -1.8365    1.2038 H         1 <0>         0.4301
     27 H10        -3.3152   -2.5286    1.1840 H         1 <0>         0.4293
     28 H11        -2.2923   -3.8479    1.3733 H         1 <0>         0.4411
     29 H12         0.6942    0.8227   -1.2108 H         1 <0>         0.0969
     30 H13         0.0447   -0.8221   -1.4135 H         1 <0>         0.0723
     31 H14        -1.0472    0.5816   -1.4893 H         1 <0>         0.0977
     32 H15        -2.4221   -0.4515    0.7857 H         1 <0>         0.4321
@<TRIPOS>BOND
     1    1    2 1
     2    1   18 1
     3    1   19 1
     4    1   20 1
     5    2    7 1
     6    2    3 1
     7    2   17 1
     8    3    4 2
     9    3   32 1
    10    4    5 1
    11    4   16 1
    12    5    6 2
    13    6    7 1
    14    6   15 1
    15    7    8 1
    16    8   13 ar
    17    8    9 ar
    18    9   10 ar
    19    9   21 1
    20   10   11 ar
    21   10   22 1
    22   11   12 ar
    23   11   14 1
    24   12   13 ar
    25   12   23 1
    26   13   24 1
    27   15   25 1
    28   15   26 1
    29   16   27 1
    30   16   28 1
    31   17   29 1
    32   17   30 1
    33   17   31 1
@<TRIPOS>MOLECULE
CHEMBL160215
   52    55     0     0     0
SMALL
USER_CHARGES

@<TRIPOS>ATOM
      1 C1         -0.0127    1.0858    0.0080 C.3       1 <0>        -0.1160
      2 C2         -0.7416    1.5850   -1.2129 C.2       1 <0>         0.3996
      3 N1         -1.2185    0.7107   -2.0459 N.2       1 <0>        -0.5214
      4 C3         -1.8861    1.0857   -3.1657 C.ar      1 <0>         0.1624
      5 C4         -2.3988    0.1458   -4.0622 C.ar      1 <0>        -0.1081
      6 C5         -3.0695    0.5713   -5.1866 C.ar      1 <0>        -0.0557
      7 C6         -3.2433    1.9255   -5.4417 C.ar      1 <0>        -0.1317
      8 C7         -2.7463    2.8716   -4.5724 C.ar      1 <0>        -0.0241
      9 C8         -2.0647    2.4620   -3.4282 C.ar      1 <0>        -0.2015
     10 C9         -1.5124    3.4258   -2.4648 C.2       1 <0>         0.5507
     11 N2         -0.8708    2.9268   -1.3826 N.am      1 <0>        -0.6537
     12 O1         -1.6315    4.6256   -2.6317 O.2       1 <0>        -0.5090
     13 C10        -3.9816    2.3636   -6.6802 C.3       1 <0>         0.1622
     14 N3         -5.4103    2.4850   -6.3798 N.pl3     1 <0>        -0.6102
     15 C11        -5.9528    3.7596   -5.9028 C.3       1 <0>         0.2279
     16 C12        -6.3771    4.5737   -7.0534 C.1       1 <0>        -0.2207
     17 C13        -6.7155    5.2230   -7.9711 C.1       1 <0>        -0.1699
     18 C14        -6.2553    1.3857   -6.5482 C.ar      1 <0>         0.2644
     19 C15        -5.7413    0.1747   -6.9951 C.ar      1 <0>        -0.2137
     20 C16        -6.5788   -0.9108   -7.1603 C.ar      1 <0>         0.0180
     21 C17        -7.9283   -0.7938   -6.8820 C.ar      1 <0>        -0.5199
     22 C18        -8.4441    0.4106   -6.4367 C.ar      1 <0>         0.0755
     23 C19        -7.6098    1.4993   -6.2639 C.ar      1 <0>        -0.2057
     24 Cl1       -10.1390    0.5529   -6.0892 Cl        1 <0>        -0.0344
     25 S1         -8.9935   -2.1812   -7.0954 S.o       1 <0>         1.4047
     26 O2        -10.2787   -1.6030   -7.2777 O.2       1 <0>        -0.8340
     27 C20        -9.0758   -2.9060   -5.4915 C.ar      1 <0>        -0.4654
     28 C21        -8.1588   -3.8722   -5.1217 C.ar      1 <0>        -0.0424
     29 C22        -8.2234   -4.4408   -3.8634 C.ar      1 <0>        -0.1398
     30 C23        -9.2046   -4.0430   -2.9747 C.ar      1 <0>        -0.0852
     31 C24       -10.1210   -3.0762   -3.3441 C.ar      1 <0>        -0.1394
     32 C25       -10.0538   -2.5045   -4.6009 C.ar      1 <0>        -0.0475
     33 H1          0.0021   -0.0041    0.0020 H         1 <0>         0.1065
     34 H2          1.0099    1.4631    0.0003 H         1 <0>         0.0951
     35 H3         -0.5229    1.4373    0.9048 H         1 <0>         0.0947
     36 H4         -2.2695   -0.9098   -3.8746 H         1 <0>         0.1428
     37 H5         -3.4651   -0.1569   -5.8791 H         1 <0>         0.1372
     38 H6         -2.8845    3.9233   -4.7760 H         1 <0>         0.1362
     39 H7         -0.4967    3.5327   -0.7240 H         1 <0>         0.4202
     40 H8         -3.5965    3.3283   -7.0106 H         1 <0>         0.0919
     41 H9         -3.8377    1.6254   -7.4692 H         1 <0>         0.0950
     42 H10        -6.8094    3.5705   -5.2559 H         1 <0>         0.1006
     43 H11        -5.1855    4.2941   -5.3427 H         1 <0>         0.1020
     44 H12        -7.0181    5.8037   -8.7919 H         1 <0>         0.2185
     45 H13        -4.6877    0.0824   -7.2134 H         1 <0>         0.1341
     46 H14        -6.1794   -1.8521   -7.5077 H         1 <0>         0.1437
     47 H15        -8.0116    2.4380   -5.9121 H         1 <0>         0.1315
     48 H16        -7.3922   -4.1830   -5.8161 H         1 <0>         0.1338
     49 H17        -7.5075   -5.1962   -3.5748 H         1 <0>         0.1270
     50 H18        -9.2555   -4.4878   -1.9919 H         1 <0>         0.1232
     51 H19       -10.8878   -2.7657   -2.6499 H         1 <0>         0.1215
     52 H20       -10.7674   -1.7465   -4.8882 H         1 <0>         0.1286
@<TRIPOS>BOND
     1    1   33 1
     2    1   34 1
     3    1   35 1
     4    1    2 1
     5    2    3 2
     6    2   11 1
     7    3    4 1
     8    4    9 ar
     9    4    5 ar
    10    5    6 ar
    11    5   36 1
    12    6    7 ar
    13    6   37 1
    14    7    8 ar
    15    7   13 1
    16    8    9 ar
    17    8   38 1
    18    9   10 1
    19   10   12 2
    20   10   11 am
    21   11   39 1
    22   13   14 1
    23   13   40 1
    24   13   41 1
    25   14   15 1
    26   14   18 1
    27   15   16 1
    28   15   42 1
    29   15   43 1
    30   16   17 3
    31   17   44 1
    32   18   23 ar
    33   18   19 ar
    34   19   20 ar
    35   19   45 1
    36   20   21 ar
    37   20   46 1
    38   21   22 ar
    39   21   25 1
    40   22   23 ar
    41   22   24 1
    42   23   47 1
    43   25   26 2
    44   25   27 1
    45   27   32 ar
    46   27   28 ar
    47   28   29 ar
    48   28   48 1
    49   29   30 ar
    50   29   49 1
    51   30   31 ar
    52   30   50 1
    53   31   32 ar
    54   31   51 1
    55   32   52 1
@<TRIPOS>MOLECULE
CHEMBL160215__1
   52    55     0     0     0
SMALL
USER_CHARGES

@<TRIPOS>ATOM
      1 C1         -0.0127    1.0858    0.0080 C.3       1 <0>        -0.1160
      2 C2         -0.7416    1.5850   -1.2129 C.2       1 <0>         0.3998
      3 N1         -1.2185    0.7107   -2.0459 N.2       1 <0>        -0.5216
      4 C3         -1.8861    1.0857   -3.1657 C.ar      1 <0>         0.1631
      5 C4         -2.3988    0.1458   -4.0622 C.ar      1 <0>        -0.1081
      6 C5         -3.0695    0.5713   -5.1866 C.ar      1 <0>        -0.0564
      7 C6         -3.2433    1.9255   -5.4417 C.ar      1 <0>        -0.1317
      8 C7         -2.7463    2.8716   -4.5724 C.ar      1 <0>        -0.0232
      9 C8         -2.0647    2.4620   -3.4282 C.ar      1 <0>        -0.2014
     10 C9         -1.5124    3.4258   -2.4648 C.2       1 <0>         0.5513
     11 N2         -0.8708    2.9268   -1.3826 N.am      1 <0>        -0.6535
     12 O1         -1.6315    4.6256   -2.6317 O.2       1 <0>        -0.5088
     13 C10        -3.9816    2.3636   -6.6802 C.3       1 <0>         0.1614
     14 N3         -5.4103    2.4850   -6.3798 N.pl3     1 <0>        -0.6092
     15 C11        -5.9528    3.7596   -5.9028 C.3       1 <0>         0.2278
     16 C12        -6.3771    4.5737   -7.0534 C.1       1 <0>        -0.2211
     17 C13        -6.7155    5.2230   -7.9711 C.1       1 <0>        -0.1688
     18 C14        -6.2553    1.3857   -6.5482 C.ar      1 <0>         0.2652
     19 C15        -5.7413    0.1747   -6.9951 C.ar      1 <0>        -0.2081
     20 C16        -6.5788   -0.9108   -7.1603 C.ar      1 <0>         0.0121
     21 C17        -7.9283   -0.7938   -6.8820 C.ar      1 <0>        -0.5160
     22 C18        -8.4441    0.4106   -6.4367 C.ar      1 <0>         0.0898
     23 C19        -7.6098    1.4993   -6.2639 C.ar      1 <0>        -0.2000
     24 Cl1       -10.1390    0.5529   -6.0892 Cl        1 <0>        -0.0571
     25 S1         -8.9935   -2.1812   -7.0954 S.o       1 <0>         1.4098
     26 O2         -8.2141   -3.1003   -7.8484 O.2       1 <0>        -0.8540
     27 C20        -9.0758   -2.9060   -5.4915 C.ar      1 <0>        -0.4654
     28 C21        -8.1588   -3.8722   -5.1217 C.ar      1 <0>        -0.0490
     29 C22        -8.2234   -4.4408   -3.8634 C.ar      1 <0>        -0.1372
     30 C23        -9.2046   -4.0430   -2.9747 C.ar      1 <0>        -0.0834
     31 C24       -10.1210   -3.0762   -3.3441 C.ar      1 <0>        -0.1380
     32 C25       -10.0538   -2.5045   -4.6009 C.ar      1 <0>        -0.0388
     33 H1          0.0021   -0.0041    0.0020 H         1 <0>         0.1063
     34 H2          1.0099    1.4631    0.0003 H         1 <0>         0.0952
     35 H3         -0.5229    1.4373    0.9048 H         1 <0>         0.0950
     36 H4         -2.2695   -0.9098   -3.8746 H         1 <0>         0.1419
     37 H5         -3.4651   -0.1569   -5.8791 H         1 <0>         0.1350
     38 H6         -2.8845    3.9233   -4.7760 H         1 <0>         0.1372
     39 H7         -0.4967    3.5327   -0.7240 H         1 <0>         0.4203
     40 H8         -3.5965    3.3283   -7.0106 H         1 <0>         0.0935
     41 H9         -3.8377    1.6254   -7.4692 H         1 <0>         0.0939
     42 H10        -6.8094    3.5705   -5.2559 H         1 <0>         0.1026
     43 H11        -5.1855    4.2941   -5.3427 H         1 <0>         0.1023
     44 H12        -7.0181    5.8037   -8.7919 H         1 <0>         0.2186
     45 H13        -4.6877    0.0824   -7.2134 H         1 <0>         0.1322
     46 H14        -6.1794   -1.8521   -7.5077 H         1 <0>         0.1387
     47 H15        -8.0116    2.4380   -5.9121 H         1 <0>         0.1386
     48 H16        -7.3922   -4.1830   -5.8161 H         1 <0>         0.1269
     49 H17        -7.5075   -5.1962   -3.5748 H         1 <0>         0.1241
     50 H18        -9.2555   -4.4878   -1.9919 H         1 <0>         0.1250
     51 H19       -10.8878   -2.7657   -2.6499 H         1 <0>         0.1281
     52 H20       -10.7674   -1.7465   -4.8882 H         1 <0>         0.1315
@<TRIPOS>BOND
     1    1   33 1
     2    1   34 1
     3    1   35 1
     4    1    2 1
     5    2    3 2
     6    2   11 1
     7    3    4 1
     8    4    9 ar
     9    4    5 ar
    10    5    6 ar
    11    5   36 1
    12    6    7 ar
    13    6   37 1
    14    7    8 ar
    15    7   13 1
    16    8    9 ar
    17    8   38 1
    18    9   10 1
    19   10   12 2
    20   10   11 am
    21   11   39 1
    22   13   14 1
    23   13   40 1
    24   13   41 1
    25   14   15 1
    26   14   18 1
    27   15   16 1
    28   15   42 1
    29   15   43 1
    30   16   17 3
    31   17   44 1
    32   18   23 ar
    33   18   19 ar
    34   19   20 ar
    35   19   45 1
    36   20   21 ar
    37   20   46 1
    38   21   22 ar
    39   21   25 1
    40   22   23 ar
    41   22   24 1
    42   23   47 1
    43   25   26 2
    44   25   27 1
    45   27   32 ar
    46   27   28 ar
    47   28   29 ar
    48   28   48 1
    49   29   30 ar
    50   29   49 1
    51   30   31 ar
    52   30   50 1
    53   31   32 ar
    54   31   51 1
    55   32   52 1
@<TRIPOS>MOLECULE
CHEMBL1097597
   54    56     0     0     0
SMALL
USER_CHARGES

@<TRIPOS>ATOM
      1 C1         -0.0187    1.5258    0.0104 C.3       1 <0>        -0.1749
      2 C2          0.0021   -0.0041    0.0020 C.3       1 <0>         0.1202
      3 N1          0.6878   -0.4765   -1.2033 N.pl3     1 <0>        -0.5622
      4 C3          2.1353   -0.7012   -1.1821 C.3       1 <0>         0.1742
      5 C4          2.4170   -2.1231   -0.7698 C.ar      1 <0>        -0.1303
      6 C5          2.5761   -2.4312    0.5751 C.ar      1 <0>        -0.0601
      7 C6          2.8340   -3.7224    0.9771 C.ar      1 <0>        -0.1181
      8 C7          2.9368   -4.7364    0.0226 C.ar      1 <0>         0.1566
      9 C8          2.7740   -4.4195   -1.3442 C.ar      1 <0>        -0.1998
     10 C9          2.5087   -3.1070   -1.7296 C.ar      1 <0>        -0.0074
     11 C10         2.8887   -5.5098   -2.3241 C.2       1 <0>         0.5453
     12 O1          2.7594   -5.3043   -3.5169 O.2       1 <0>        -0.4915
     13 N2          3.1440   -6.7508   -1.8481 N.am      1 <0>        -0.6548
     14 H1          3.2264   -7.4947   -2.4652 H         1 <0>         0.4183
     15 C11         3.2866   -6.9641   -0.5140 C.2       1 <0>         0.3953
     16 N3          3.1902   -6.0219    0.3741 N.2       1 <0>        -0.5266
     17 C12         3.5706   -8.3663   -0.0405 C.3       1 <0>        -0.1098
     18 C13        -0.0290   -0.7097   -2.3574 C.2       1 <0>         0.2898
     19 N4          0.4178   -1.1387   -3.5248 N.2       1 <0>        -0.5824
     20 C14        -0.3877   -1.3162   -4.5416 C.2       1 <0>         0.1263
     21 C15        -1.7279   -1.0297   -4.3239 C.2       1 <0>        -0.2764
     22 S1         -1.6819   -0.5225   -2.6122 S.3       1 <0>         0.1640
     23 C16        -2.8635   -1.1218   -5.2404 C.2       1 <0>         0.5976
     24 O2         -3.9800   -0.8217   -4.8585 O.2       1 <0>        -0.5563
     25 N5         -2.6744   -1.5391   -6.5079 N.am      1 <0>        -0.6686
     26 C17        -3.8121   -1.6314   -7.4262 C.3       1 <0>         0.0769
     27 H2         -4.5165   -0.8271   -7.2140 H         1 <0>         0.0790
     28 C18        -3.3153   -1.5073   -8.8679 C.3       1 <0>        -0.0823
     29 C19        -2.7304   -0.1106   -9.0873 C.3       1 <0>        -0.1774
     30 C20        -2.2411    0.0117  -10.5074 C.2       1 <0>         0.4914
     31 O3         -2.3500   -0.9309  -11.2730 O.co2     1 <0>        -0.6977
     32 O4         -1.7362    1.0532  -10.8906 O.co2     1 <0>        -0.7200
     33 C21        -4.4981   -2.9609   -7.2440 C.2       1 <0>         0.4984
     34 O5         -5.6955   -3.0622   -7.4497 O.co2     1 <0>        -0.7013
     35 O6         -3.8556   -3.9350   -6.8908 O.co2     1 <0>        -0.6974
     36 H3          1.0039    1.9031    0.0027 H         1 <0>         0.0603
     37 H4         -0.5459    1.8868   -0.8726 H         1 <0>         0.0640
     38 H5         -0.5289    1.8773    0.9072 H         1 <0>         0.0704
     39 H6          0.5293   -0.3651    0.8851 H         1 <0>         0.0862
     40 H7         -1.0205   -0.3814    0.0098 H         1 <0>         0.0792
     41 H8          2.5453   -0.5232   -2.1762 H         1 <0>         0.0979
     42 H9          2.5986   -0.0180   -0.4703 H         1 <0>         0.0895
     43 H10         2.4969   -1.6482    1.3146 H         1 <0>         0.1312
     44 H11         2.9566   -3.9499    2.0257 H         1 <0>         0.1374
     45 H12         2.3796   -2.8622   -2.7736 H         1 <0>         0.1495
     46 H13         4.6481   -8.5268   -0.0058 H         1 <0>         0.0965
     47 H14         3.1502   -8.5057    0.9554 H         1 <0>         0.1023
     48 H15         3.1188   -9.0807   -0.7288 H         1 <0>         0.0865
     49 H16        -0.0285   -1.6662   -5.4981 H         1 <0>         0.1793
     50 H17        -1.7849   -1.7782   -6.8121 H         1 <0>         0.3928
     51 H18        -2.5456   -2.2566   -9.0528 H         1 <0>         0.0611
     52 H19        -4.1477   -1.6645   -9.5539 H         1 <0>         0.0733
     53 H20        -3.5001    0.6387   -8.9024 H         1 <0>         0.0528
     54 H21        -1.8981    0.0466   -8.4013 H         1 <0>         0.0519
@<TRIPOS>BOND
     1    1    2 1
     2    1   36 1
     3    1   37 1
     4    1   38 1
     5    2    3 1
     6    2   39 1
     7    2   40 1
     8    3    4 1
     9    3   18 1
    10    4    5 1
    11    4   41 1
    12    4   42 1
    13    5   10 ar
    14    5    6 ar
    15    6    7 ar
    16    6   43 1
    17    7    8 ar
    18    7   44 1
    19    8   16 1
    20    8    9 ar
    21    9   10 ar
    22    9   11 1
    23   10   45 1
    24   11   12 2
    25   11   13 am
    26   13   14 1
    27   13   15 1
    28   15   16 2
    29   15   17 1
    30   17   46 1
    31   17   47 1
    32   17   48 1
    33   18   22 1
    34   18   19 2
    35   19   20 1
    36   20   21 2
    37   20   49 1
    38   21   22 1
    39   21   23 1
    40   23   24 2
    41   23   25 am
    42   25   26 1
    43   25   50 1
    44   26   27 1
    45   26   28 1
    46   26   33 1
    47   28   29 1
    48   28   51 1
    49   28   52 1
    50   29   30 1
    51   29   53 1
    52   29   54 1
    53   30   31 2
    54   30   32 1
    55   33   34 2
    56   33   35 1
@<TRIPOS>MOLECULE
CHEMBL6632
   59    62     0     0     0
SMALL
USER_CHARGES

@<TRIPOS>ATOM
      1 C1         -3.0009   -0.8810   -1.3772 C.3       1 <0>        -0.1254
      2 C2         -2.3070    0.3696   -1.8521 C.ar      1 <0>        -0.0285
      3 C3         -1.6097    0.3513   -3.0394 C.ar      1 <0>        -0.1101
      4 C4         -0.9665    1.5088   -3.4814 C.ar      1 <0>         0.1618
      5 C5         -1.0419    2.6838   -2.7006 C.ar      1 <0>        -0.2046
      6 C6         -1.7525    2.6812   -1.5025 C.ar      1 <0>        -0.0201
      7 C7         -2.3834    1.5276   -1.0898 C.ar      1 <0>        -0.1351
      8 C8         -3.1585    1.5215    0.2025 C.3       1 <0>         0.1648
      9 N1         -3.0305    2.8269    0.8549 N.pl3     1 <0>        -0.6101
     10 C9         -3.9908    3.8923    0.5564 C.3       1 <0>         0.2258
     11 C10        -5.1223    3.8098    1.4943 C.1       1 <0>        -0.2213
     12 C11        -6.0248    3.7441    2.2423 C.1       1 <0>        -0.1682
     13 C12        -1.9976    3.0548    1.7575 C.ar      1 <0>         0.2714
     14 C13        -1.0184    2.0833    1.9523 C.ar      1 <0>        -0.2070
     15 C14        -0.0009    2.2994    2.8367 C.ar      1 <0>        -0.0086
     16 C15         0.0632    3.4995    3.5519 C.ar      1 <0>        -0.2335
     17 C16        -0.9193    4.4788    3.3584 C.ar      1 <0>         0.2142
     18 C17        -1.9417    4.2544    2.4590 C.ar      1 <0>        -0.2423
     19 F1         -0.8636    5.6405    4.0459 F         1 <0>        -0.1117
     20 C18         1.1611    3.7328    4.5069 C.2       1 <0>         0.5668
     21 O1          1.2151    4.7769    5.1280 O.2       1 <0>        -0.5283
     22 N2          2.1052    2.7889    4.6920 N.am      1 <0>        -0.7224
     23 C19         3.1966    3.0208    5.6414 C.3       1 <0>         0.1744
     24 C20         4.1090    1.8216    5.6606 C.ar      1 <0>         0.1046
     25 C21         5.2432    1.8134    4.8707 C.ar      1 <0>        -0.1530
     26 C22         6.0759    0.7053    4.8957 C.ar      1 <0>        -0.0753
     27 C23         5.7350   -0.3580    5.7181 C.ar      1 <0>        -0.1652
     28 C24         4.5849   -0.2782    6.4799 C.ar      1 <0>         0.1002
     29 N3          3.8189    0.7944    6.4349 N.ar      1 <0>        -0.4692
     30 C25        -0.3530    3.8856   -3.1940 C.2       1 <0>         0.5495
     31 N4          0.3105    3.7850   -4.3693 N.am      1 <0>        -0.6540
     32 C26         0.3296    2.6121   -5.0548 C.2       1 <0>         0.3991
     33 N5         -0.2684    1.5353   -4.6443 N.2       1 <0>        -0.5232
     34 C27         1.0839    2.5582   -6.3583 C.3       1 <0>        -0.1132
     35 O2         -0.3789    4.9304   -2.5699 O.2       1 <0>        -0.5068
     36 H1         -4.0506   -0.8471   -1.6690 H         1 <0>         0.0810
     37 H2         -2.5266   -1.7530   -1.8274 H         1 <0>         0.0753
     38 H3         -2.9275   -0.9474   -0.2917 H         1 <0>         0.0739
     39 H4         -1.5604   -0.5544   -3.6257 H         1 <0>         0.1416
     40 H5         -1.8119    3.5778   -0.9034 H         1 <0>         0.1396
     41 H6         -4.2095    1.3205   -0.0051 H         1 <0>         0.0975
     42 H7         -2.7633    0.7467    0.8595 H         1 <0>         0.0983
     43 H8         -3.5025    4.8612    0.6605 H         1 <0>         0.1051
     44 H9         -4.3557    3.7770   -0.4642 H         1 <0>         0.1047
     45 H10        -6.8320    3.6853    2.9112 H         1 <0>         0.2185
     46 H11        -1.0645    1.1553    1.4018 H         1 <0>         0.1348
     47 H12         0.7552    1.5425    2.9843 H         1 <0>         0.1319
     48 H13        -2.6996    5.0078    2.3029 H         1 <0>         0.1426
     49 H14         2.0620    1.9561    4.1966 H         1 <0>         0.3989
     50 H15         3.7613    3.9022    5.3375 H         1 <0>         0.0865
     51 H16         2.7839    3.1795    6.6377 H         1 <0>         0.0884
     52 H17         5.4776    2.6594    4.2416 H         1 <0>         0.1381
     53 H18         6.9686    0.6708    4.2889 H         1 <0>         0.1380
     54 H19         6.3603   -1.2374    5.7624 H         1 <0>         0.1382
     55 H20         4.3124   -1.1020    7.1229 H         1 <0>         0.1595
     56 H21         2.1163    2.2645   -6.1687 H         1 <0>         0.0999
     57 H22         0.6146    1.8299   -7.0198 H         1 <0>         0.1052
     58 H23         1.0664    3.5410   -6.8292 H         1 <0>         0.0875
     59 H24         0.7766    4.5574   -4.7257 H         1 <0>         0.4194
@<TRIPOS>BOND
     1    1   36 1
     2    1   37 1
     3    1   38 1
     4    1    2 1
     5    2    7 ar
     6    2    3 ar
     7    3   39 1
     8    3    4 ar
     9    4    5 ar
    10    4   33 1
    11    5   30 1
    12    5    6 ar
    13    6   40 1
    14    6    7 ar
    15    7    8 1
    16    8    9 1
    17    8   41 1
    18    8   42 1
    19    9   10 1
    20    9   13 1
    21   10   11 1
    22   10   43 1
    23   10   44 1
    24   11   12 3
    25   12   45 1
    26   13   18 ar
    27   13   14 ar
    28   14   15 ar
    29   14   46 1
    30   15   16 ar
    31   15   47 1
    32   16   17 ar
    33   16   20 1
    34   17   18 ar
    35   17   19 1
    36   18   48 1
    37   20   21 2
    38   20   22 am
    39   22   23 1
    40   22   49 1
    41   23   24 1
    42   23   50 1
    43   23   51 1
    44   24   29 ar
    45   24   25 ar
    46   25   26 ar
    47   25   52 1
    48   26   27 ar
    49   26   53 1
    50   27   28 ar
    51   27   54 1
    52   28   29 ar
    53   28   55 1
    54   30   35 2
    55   30   31 am
    56   31   32 1
    57   31   59 1
    58   32   33 2
    59   32   34 1
    60   34   56 1
    61   34   57 1
    62   34   58 1
@<TRIPOS>MOLECULE
CHEMBL441086
   62    65     0     0     0
SMALL
USER_CHARGES

@<TRIPOS>ATOM
      1 C1         -2.9973   -0.8818   -1.3802 C.3       1 <0>        -0.1251
      2 C2         -2.3040    0.3700   -1.8527 C.ar      1 <0>        -0.0150
      3 C3         -1.6026    0.3548   -3.0403 C.ar      1 <0>        -0.1628
      4 C4         -0.9638    1.5074   -3.4759 C.ar      1 <0>         0.1776
      5 C5         -1.0386    2.6796   -2.7012 C.ar      1 <0>        -0.2133
      6 C6         -1.7504    2.6803   -1.5043 C.ar      1 <0>        -0.0044
      7 C7         -2.3827    1.5273   -1.0913 C.ar      1 <0>        -0.1403
      8 C8         -3.1604    1.5219    0.1995 C.3       1 <0>         0.1671
      9 N1         -3.0325    2.8273    0.8521 N.pl3     1 <0>        -0.6156
     10 C9         -3.9913    3.8935    0.5517 C.3       1 <0>         0.2271
     11 C10        -5.1247    3.8121    1.4874 C.1       1 <0>        -0.2145
     12 C11        -6.0286    3.7472    2.2337 C.1       1 <0>        -0.1774
     13 C12        -2.0011    3.0544    1.7566 C.ar      1 <0>         0.2566
     14 C13        -1.0229    2.0822    1.9530 C.ar      1 <0>        -0.2062
     15 C14        -0.0069    2.2974    2.8393 C.ar      1 <0>        -0.0089
     16 C15         0.0567    3.4973    3.5549 C.ar      1 <0>        -0.2092
     17 C16        -0.9248    4.4774    3.3597 C.ar      1 <0>         0.2071
     18 C17        -1.9457    4.2538    2.4584 C.ar      1 <0>        -0.2398
     19 F1         -0.8696    5.6388    4.0476 F         1 <0>        -0.1120
     20 C18         1.1530    3.7297    4.5119 C.2       1 <0>         0.5596
     21 O1          1.2066    4.7737    5.1333 O.2       1 <0>        -0.5323
     22 N2          2.0961    2.7852    4.6986 N.am      1 <0>        -0.6937
     23 C19         3.1859    3.0162    5.6500 C.3       1 <0>         0.0945
     24 C20         4.3959    2.1671    5.2554 C.3       1 <0>        -0.0915
     25 S1          5.0317    2.7286    3.6519 S.3       1 <0>        -0.0090
     26 C21         6.4034    1.6670    3.3418 C.2       1 <0>         0.0328
     27 C22         7.2456    1.6929    2.2244 C.2       1 <0>        -0.0159
     28 N3          8.1416    0.7489    2.3646 N.2       1 <0>        -0.2318
     29 N4          7.9447    0.1240    3.4723 N.pl3     1 <0>        -0.3236
     30 N5          6.8409    0.6961    4.1200 N.2       1 <0>        -0.2800
     31 C23         2.7332    2.6325    7.0352 C.2       1 <0>         0.5018
     32 O2          1.9052    1.7499    7.1834 O.co2     1 <0>        -0.6792
     33 O3          3.1949    3.2047    8.0078 O.co2     1 <0>        -0.6825
     34 C24        -0.3454    3.8806   -3.2005 C.2       1 <0>         0.5313
     35 N6          0.3194    3.7890   -4.3680 N.2       1 <0>        -0.5967
     36 C25         0.3592    2.6781   -5.0499 C.2       1 <0>         0.4459
     37 N7         -0.2486    1.5452   -4.6564 N.pl3     1 <0>        -0.6270
     38 C26         1.1264    2.6634   -6.3469 C.3       1 <0>        -0.1212
     39 O4         -0.3735    4.9265   -2.5751 O.2       1 <0>        -0.4755
     40 H1         -4.0465   -0.8490   -1.6741 H         1 <0>         0.0802
     41 H2         -2.5210   -1.7528   -1.8303 H         1 <0>         0.0727
     42 H3         -2.9260   -0.9490   -0.2947 H         1 <0>         0.0774
     43 H4         -1.5504   -0.5497   -3.6281 H         1 <0>         0.1366
     44 H5         -1.8098    3.5779   -0.9067 H         1 <0>         0.1457
     45 H6         -4.2112    1.3220   -0.0102 H         1 <0>         0.0931
     46 H7         -2.7672    0.7468    0.8574 H         1 <0>         0.0979
     47 H8         -3.5023    4.8620    0.6566 H         1 <0>         0.1051
     48 H9         -4.3543    3.7785   -0.4696 H         1 <0>         0.1008
     49 H10        -6.8371    3.6891    2.9012 H         1 <0>         0.2168
     50 H11        -1.0686    1.1543    1.4022 H         1 <0>         0.1305
     51 H12         0.7484    1.5399    2.9882 H         1 <0>         0.1352
     52 H13        -2.7028    5.0077    2.3011 H         1 <0>         0.1386
     53 H14         2.0533    1.9525    4.2030 H         1 <0>         0.3924
     54 H15         3.4621    4.0705    5.6370 H         1 <0>         0.0967
     55 H16         5.1744    2.2705    6.0113 H         1 <0>         0.1060
     56 H17         4.0975    1.1213    5.1819 H         1 <0>         0.0946
     57 H18         7.1694    2.3745    1.3901 H         1 <0>         0.1976
     58 H19         1.5574    3.6485   -6.5253 H         1 <0>         0.1089
     59 H20         1.9242    1.9229   -6.2887 H         1 <0>         0.0964
     60 H21         0.4527    2.4080   -7.1648 H         1 <0>         0.0951
     61 H22        -0.1841    0.7485   -5.2059 H         1 <0>         0.4207
     62 H23         8.4742   -0.6173    3.8054 H         1 <0>         0.4639
@<TRIPOS>BOND
     1    1   40 1
     2    1   41 1
     3    1   42 1
     4    1    2 1
     5    2    7 ar
     6    2    3 ar
     7    3   43 1
     8    3    4 ar
     9    4    5 ar
    10    4   37 1
    11    5   34 1
    12    5    6 ar
    13    6   44 1
    14    6    7 ar
    15    7    8 1
    16    8    9 1
    17    8   45 1
    18    8   46 1
    19    9   10 1
    20    9   13 1
    21   10   11 1
    22   10   47 1
    23   10   48 1
    24   11   12 3
    25   12   49 1
    26   13   18 ar
    27   13   14 ar
    28   14   15 ar
    29   14   50 1
    30   15   16 ar
    31   15   51 1
    32   16   17 ar
    33   16   20 1
    34   17   18 ar
    35   17   19 1
    36   18   52 1
    37   20   21 2
    38   20   22 am
    39   22   23 1
    40   22   53 1
    41   23   24 1
    42   23   31 1
    43   23   54 1
    44   24   55 1
    45   24   56 1
    46   24   25 1
    47   25   26 1
    48   26   30 2
    49   26   27 1
    50   27   28 2
    51   27   57 1
    52   28   29 1
    53   29   30 1
    54   29   62 1
    55   31   32 2
    56   31   33 1
    57   34   39 2
    58   34   35 1
    59   35   36 2
    60   36   37 1
    61   36   38 1
    62   37   61 1
    63   38   58 1
    64   38   59 1
    65   38   60 1
@<TRIPOS>MOLECULE
CHEMBL441086__1
   62    65     0     0     0
SMALL
USER_CHARGES

@<TRIPOS>ATOM
      1 C1         -3.0009   -0.8810   -1.3772 C.3       1 <0>        -0.1246
      2 C2         -2.3070    0.3696   -1.8521 C.ar      1 <0>        -0.0298
      3 C3         -1.6097    0.3513   -3.0394 C.ar      1 <0>        -0.1111
      4 C4         -0.9665    1.5088   -3.4814 C.ar      1 <0>         0.1580
      5 C5         -1.0419    2.6838   -2.7006 C.ar      1 <0>        -0.2027
      6 C6         -1.7525    2.6812   -1.5025 C.ar      1 <0>        -0.0183
      7 C7         -2.3834    1.5276   -1.0898 C.ar      1 <0>        -0.1304
      8 C8         -3.1585    1.5215    0.2025 C.3       1 <0>         0.1662
      9 N1         -3.0305    2.8269    0.8549 N.pl3     1 <0>        -0.6152
     10 C9         -3.9908    3.8923    0.5564 C.3       1 <0>         0.2277
     11 C10        -5.1223    3.8098    1.4943 C.1       1 <0>        -0.2151
     12 C11        -6.0248    3.7441    2.2423 C.1       1 <0>        -0.1768
     13 C12        -1.9976    3.0548    1.7575 C.ar      1 <0>         0.2572
     14 C13        -1.0184    2.0833    1.9523 C.ar      1 <0>        -0.2058
     15 C14        -0.0009    2.2994    2.8367 C.ar      1 <0>        -0.0088
     16 C15         0.0632    3.4995    3.5519 C.ar      1 <0>        -0.2098
     17 C16        -0.9193    4.4788    3.3584 C.ar      1 <0>         0.2064
     18 C17        -1.9417    4.2544    2.4590 C.ar      1 <0>        -0.2408
     19 F1         -0.8636    5.6405    4.0459 F         1 <0>        -0.1125
     20 C18         1.1611    3.7328    4.5069 C.2       1 <0>         0.5596
     21 O1          1.2151    4.7769    5.1280 O.2       1 <0>        -0.5328
     22 N2          2.1052    2.7889    4.6920 N.am      1 <0>        -0.6937
     23 C19         3.1966    3.0208    5.6414 C.3       1 <0>         0.0945
     24 C20         4.4065    2.1724    5.2447 C.3       1 <0>        -0.0913
     25 S1          5.0389    2.7341    3.6400 S.3       1 <0>        -0.0103
     26 C21         6.4107    1.6734    3.3275 C.2       1 <0>         0.0328
     27 C22         7.2508    1.6996    2.2086 C.2       1 <0>        -0.0162
     28 N3          8.1477    0.7562    2.3473 N.2       1 <0>        -0.2315
     29 H1          8.4842   -0.6091    3.7880 H         1 <0>         0.4641
     30 N4          7.9533    0.1314    3.4555 N.pl3     1 <0>        -0.3230
     31 N5          6.8503    0.7029    4.1051 N.2       1 <0>        -0.2795
     32 C23         2.7467    2.6371    7.0275 C.2       1 <0>         0.5017
     33 O2          1.9195    1.7540    7.1773 O.co2     1 <0>        -0.6788
     34 O3          3.2098    3.2098    7.9991 O.co2     1 <0>        -0.6826
     35 C24        -0.3530    3.8856   -3.1940 C.2       1 <0>         0.5492
     36 N6          0.3105    3.7850   -4.3693 N.am      1 <0>        -0.6545
     37 C25         0.3296    2.6121   -5.0548 C.2       1 <0>         0.3953
     38 N7         -0.2684    1.5353   -4.6443 N.2       1 <0>        -0.5228
     39 C26         1.0839    2.5582   -6.3583 C.3       1 <0>        -0.1114
     40 O4         -0.3789    4.9304   -2.5699 O.2       1 <0>        -0.5043
     41 H2         -4.0506   -0.8471   -1.6690 H         1 <0>         0.0790
     42 H3         -2.5266   -1.7530   -1.8274 H         1 <0>         0.0738
     43 H4         -2.9275   -0.9474   -0.2917 H         1 <0>         0.0755
     44 H5         -1.5604   -0.5544   -3.6257 H         1 <0>         0.1396
     45 H6         -1.8119    3.5778   -0.9034 H         1 <0>         0.1417
     46 H7         -4.2095    1.3205   -0.0051 H         1 <0>         0.0938
     47 H8         -2.7633    0.7467    0.8595 H         1 <0>         0.0986
     48 H9         -3.5025    4.8612    0.6605 H         1 <0>         0.1040
     49 H10        -4.3557    3.7770   -0.4642 H         1 <0>         0.1008
     50 H11        -6.8320    3.6853    2.9112 H         1 <0>         0.2168
     51 H12        -1.0645    1.1553    1.4018 H         1 <0>         0.1314
     52 H13         0.7552    1.5425    2.9843 H         1 <0>         0.1354
     53 H14        -2.6996    5.0078    2.3029 H         1 <0>         0.1381
     54 H15         2.0620    1.9561    4.1966 H         1 <0>         0.3926
     55 H16         3.4721    4.0753    5.6277 H         1 <0>         0.0965
     56 H17         5.1862    2.2765    5.9992 H         1 <0>         0.1060
     57 H18         4.1086    1.1264    5.1720 H         1 <0>         0.0948
     58 H19         7.1727    2.3809    1.3743 H         1 <0>         0.1973
     59 H20         2.1163    2.2645   -6.1687 H         1 <0>         0.0990
     60 H21         0.6146    1.8299   -7.0198 H         1 <0>         0.1032
     61 H22         1.0664    3.5410   -6.8292 H         1 <0>         0.0858
     62 H23         0.7766    4.5574   -4.7257 H         1 <0>         0.4182
@<TRIPOS>BOND
     1    1   41 1
     2    1   42 1
     3    1   43 1
     4    1    2 1
     5    2    7 ar
     6    2    3 ar
     7    3   44 1
     8    3    4 ar
     9    4    5 ar
    10    4   38 1
    11    5   35 1
    12    5    6 ar
    13    6   45 1
    14    6    7 ar
    15    7    8 1
    16    8    9 1
    17    8   46 1
    18    8   47 1
    19    9   10 1
    20    9   13 1
    21   10   11 1
    22   10   48 1
    23   10   49 1
    24   11   12 3
    25   12   50 1
    26   13   18 ar
    27   13   14 ar
    28   14   15 ar
    29   14   51 1
    30   15   16 ar
    31   15   52 1
    32   16   17 ar
    33   16   20 1
    34   17   18 ar
    35   17   19 1
    36   18   53 1
    37   20   21 2
    38   20   22 am
    39   22   23 1
    40   22   54 1
    41   23   24 1
    42   23   32 1
    43   23   55 1
    44   24   56 1
    45   24   57 1
    46   24   25 1
    47   25   26 1
    48   26   31 2
    49   26   27 1
    50   27   28 2
    51   27   58 1
    52   28   30 1
    53   29   30 1
    54   30   31 1
    55   32   33 2
    56   32   34 1
    57   35   40 2
    58   35   36 am
    59   36   37 1
    60   36   62 1
    61   37   38 2
    62   37   39 1
    63   39   59 1
    64   39   60 1
    65   39   61 1
@<TRIPOS>MOLECULE
CHEMBL441086__2
   62    65     0     0     0
SMALL
USER_CHARGES

@<TRIPOS>ATOM
      1 C1         -2.9973   -0.8818   -1.3802 C.3       1 <0>        -0.1240
      2 C2         -2.3040    0.3700   -1.8527 C.ar      1 <0>        -0.0161
      3 C3         -1.6026    0.3548   -3.0403 C.ar      1 <0>        -0.1632
      4 C4         -0.9638    1.5074   -3.4759 C.ar      1 <0>         0.1785
      5 C5         -1.0386    2.6796   -2.7012 C.ar      1 <0>        -0.2125
      6 C6         -1.7504    2.6803   -1.5043 C.ar      1 <0>        -0.0039
      7 C7         -2.3827    1.5273   -1.0913 C.ar      1 <0>        -0.1422
      8 C8         -3.1604    1.5219    0.1995 C.3       1 <0>         0.1685
      9 N1         -3.0325    2.8273    0.8521 N.pl3     1 <0>        -0.6158
     10 C9         -3.9913    3.8935    0.5517 C.3       1 <0>         0.2260
     11 C10        -5.1247    3.8121    1.4874 C.1       1 <0>        -0.2111
     12 C11        -6.0286    3.7472    2.2337 C.1       1 <0>        -0.1807
     13 C12        -2.0011    3.0544    1.7566 C.ar      1 <0>         0.2556
     14 C13        -1.0229    2.0822    1.9530 C.ar      1 <0>        -0.2061
     15 C14        -0.0069    2.2974    2.8393 C.ar      1 <0>        -0.0098
     16 C15         0.0567    3.4973    3.5549 C.ar      1 <0>        -0.2066
     17 C16        -0.9248    4.4774    3.3597 C.ar      1 <0>         0.2066
     18 C17        -1.9457    4.2538    2.4584 C.ar      1 <0>        -0.2397
     19 F1         -0.8696    5.6388    4.0476 F         1 <0>        -0.1123
     20 C18         1.1530    3.7297    4.5119 C.2       1 <0>         0.5661
     21 O1          1.2066    4.7737    5.1333 O.2       1 <0>        -0.5336
     22 N2          2.0961    2.7852    4.6986 N.am      1 <0>        -0.6941
     23 C19         3.1859    3.0162    5.6500 C.3       1 <0>         0.0931
     24 C20         3.7245    1.6723    6.1447 C.3       1 <0>        -0.0879
     25 S1          2.3928    0.7513    6.9627 S.3       1 <0>        -0.0127
     26 C21         3.1619   -0.7510    7.4687 C.2       1 <0>         0.0325
     27 C22         2.5549   -1.8153    8.1451 C.2       1 <0>        -0.0162
     28 N3          3.4563   -2.7442    8.3404 N.2       1 <0>        -0.2321
     29 N4          4.5837   -2.3658    7.8484 N.pl3     1 <0>        -0.3234
     30 N5          4.4210   -1.0952    7.2792 N.2       1 <0>        -0.2786
     31 C23         4.2922    3.7813    4.9705 C.2       1 <0>         0.4993
     32 O2          4.1807    4.1037    3.8000 O.co2     1 <0>        -0.6699
     33 O3          5.2988    4.0778    5.5912 O.co2     1 <0>        -0.6896
     34 C24        -0.3454    3.8806   -3.2005 C.2       1 <0>         0.5303
     35 N6          0.3194    3.7890   -4.3680 N.2       1 <0>        -0.5954
     36 C25         0.3592    2.6781   -5.0499 C.2       1 <0>         0.4453
     37 N7         -0.2486    1.5452   -4.6564 N.pl3     1 <0>        -0.6275
     38 C26         1.1264    2.6634   -6.3469 C.3       1 <0>        -0.1209
     39 O4         -0.3735    4.9265   -2.5751 O.2       1 <0>        -0.4729
     40 H1         -4.0465   -0.8490   -1.6741 H         1 <0>         0.0797
     41 H2         -2.5210   -1.7528   -1.8303 H         1 <0>         0.0723
     42 H3         -2.9260   -0.9490   -0.2947 H         1 <0>         0.0767
     43 H4         -1.5504   -0.5497   -3.6281 H         1 <0>         0.1364
     44 H5         -1.8098    3.5779   -0.9067 H         1 <0>         0.1455
     45 H6         -4.2112    1.3220   -0.0102 H         1 <0>         0.0926
     46 H7         -2.7672    0.7468    0.8574 H         1 <0>         0.0973
     47 H8         -3.5023    4.8620    0.6566 H         1 <0>         0.1054
     48 H9         -4.3543    3.7785   -0.4696 H         1 <0>         0.1010
     49 H10        -6.8371    3.6891    2.9012 H         1 <0>         0.2165
     50 H11        -1.0686    1.1543    1.4022 H         1 <0>         0.1301
     51 H12         0.7484    1.5399    2.9882 H         1 <0>         0.1344
     52 H13        -2.7028    5.0077    2.3011 H         1 <0>         0.1382
     53 H14         2.0533    1.9525    4.2030 H         1 <0>         0.3906
     54 H15         2.8129    3.5921    6.4969 H         1 <0>         0.0964
     55 H16         4.0975    1.0964    5.2978 H         1 <0>         0.0902
     56 H17         4.5353    1.8442    6.8526 H         1 <0>         0.1113
     57 H18         1.5207   -1.8621    8.4529 H         1 <0>         0.1975
     58 H19         1.5574    3.6485   -6.5253 H         1 <0>         0.1090
     59 H20         1.9242    1.9229   -6.2887 H         1 <0>         0.0964
     60 H21         0.4527    2.4080   -7.1648 H         1 <0>         0.0949
     61 H22        -0.1841    0.7485   -5.2059 H         1 <0>         0.4205
     62 H23         5.4082   -2.8766    7.8653 H         1 <0>         0.4640
@<TRIPOS>BOND
     1    1   40 1
     2    1   41 1
     3    1   42 1
     4    1    2 1
     5    2    7 ar
     6    2    3 ar
     7    3   43 1
     8    3    4 ar
     9    4    5 ar
    10    4   37 1
    11    5   34 1
    12    5    6 ar
    13    6   44 1
    14    6    7 ar
    15    7    8 1
    16    8    9 1
    17    8   45 1
    18    8   46 1
    19    9   10 1
    20    9   13 1
    21   10   11 1
    22   10   47 1
    23   10   48 1
    24   11   12 3
    25   12   49 1
    26   13   18 ar
    27   13   14 ar
    28   14   15 ar
    29   14   50 1
    30   15   16 ar
    31   15   51 1
    32   16   17 ar
    33   16   20 1
    34   17   18 ar
    35   17   19 1
    36   18   52 1
    37   20   21 2
    38   20   22 am
    39   22   23 1
    40   22   53 1
    41   23   24 1
    42   23   31 1
    43   23   54 1
    44   24   55 1
    45   24   56 1
    46   24   25 1
    47   25   26 1
    48   26   30 2
    49   26   27 1
    50   27   28 2
    51   27   57 1
    52   28   29 1
    53   29   30 1
    54   29   62 1
    55   31   32 2
    56   31   33 1
    57   34   39 2
    58   34   35 1
    59   35   36 2
    60   36   37 1
    61   36   38 1
    62   37   61 1
    63   38   58 1
    64   38   59 1
    65   38   60 1
@<TRIPOS>MOLECULE
CHEMBL441086__3
   62    65     0     0     0
SMALL
USER_CHARGES

@<TRIPOS>ATOM
      1 C1         -3.0009   -0.8810   -1.3772 C.3       1 <0>        -0.1235
      2 C2         -2.3070    0.3696   -1.8521 C.ar      1 <0>        -0.0309
      3 C3         -1.6097    0.3513   -3.0394 C.ar      1 <0>        -0.1117
      4 C4         -0.9665    1.5088   -3.4814 C.ar      1 <0>         0.1589
      5 C5         -1.0419    2.6838   -2.7006 C.ar      1 <0>        -0.2021
      6 C6         -1.7525    2.6812   -1.5025 C.ar      1 <0>        -0.0176
      7 C7         -2.3834    1.5276   -1.0898 C.ar      1 <0>        -0.1325
      8 C8         -3.1585    1.5215    0.2025 C.3       1 <0>         0.1677
      9 N1         -3.0305    2.8269    0.8549 N.pl3     1 <0>        -0.6154
     10 C9         -3.9908    3.8923    0.5564 C.3       1 <0>         0.2266
     11 C10        -5.1223    3.8098    1.4943 C.1       1 <0>        -0.2117
     12 C11        -6.0248    3.7441    2.2423 C.1       1 <0>        -0.1802
     13 C12        -1.9976    3.0548    1.7575 C.ar      1 <0>         0.2562
     14 C13        -1.0184    2.0833    1.9523 C.ar      1 <0>        -0.2058
     15 C14        -0.0009    2.2994    2.8367 C.ar      1 <0>        -0.0097
     16 C15         0.0632    3.4995    3.5519 C.ar      1 <0>        -0.2073
     17 C16        -0.9193    4.4788    3.3584 C.ar      1 <0>         0.2059
     18 C17        -1.9417    4.2544    2.4590 C.ar      1 <0>        -0.2407
     19 F1         -0.8636    5.6405    4.0459 F         1 <0>        -0.1128
     20 C18         1.1611    3.7328    4.5069 C.2       1 <0>         0.5661
     21 O1          1.2151    4.7769    5.1280 O.2       1 <0>        -0.5342
     22 N2          2.1052    2.7889    4.6920 N.am      1 <0>        -0.6941
     23 C19         3.1966    3.0208    5.6414 C.3       1 <0>         0.0933
     24 C20         3.7369    1.6774    6.1354 C.3       1 <0>        -0.0882
     25 S1          2.4073    0.7557    6.9559 S.3       1 <0>        -0.0125
     26 C21         3.1784   -0.7460    7.4608 C.2       1 <0>         0.0325
     27 C22         2.5733   -1.8106    8.1385 C.2       1 <0>        -0.0161
     28 N3          3.4757   -2.7389    8.3324 N.2       1 <0>        -0.2319
     29 H1          5.4267   -2.8703    7.8532 H         1 <0>         0.4641
     30 N4          4.6020   -2.3599    7.8382 N.pl3     1 <0>        -0.3233
     31 N5          4.4373   -1.0894    7.2690 N.2       1 <0>        -0.2786
     32 C23         4.3011    3.7865    4.9597 C.2       1 <0>         0.4996
     33 O2          4.1873    4.1086    3.7893 O.co2     1 <0>        -0.6709
     34 O3          5.3087    4.0839    5.5785 O.co2     1 <0>        -0.6895
     35 C24        -0.3530    3.8856   -3.1940 C.2       1 <0>         0.5483
     36 N6          0.3105    3.7850   -4.3693 N.am      1 <0>        -0.6543
     37 C25         0.3296    2.6121   -5.0548 C.2       1 <0>         0.3967
     38 N7         -0.2684    1.5353   -4.6443 N.2       1 <0>        -0.5242
     39 C26         1.0839    2.5582   -6.3583 C.3       1 <0>        -0.1115
     40 O4         -0.3789    4.9304   -2.5699 O.2       1 <0>        -0.5021
     41 H2         -4.0506   -0.8471   -1.6690 H         1 <0>         0.0785
     42 H3         -2.5266   -1.7530   -1.8274 H         1 <0>         0.0734
     43 H4         -2.9275   -0.9474   -0.2917 H         1 <0>         0.0748
     44 H5         -1.5604   -0.5544   -3.6257 H         1 <0>         0.1394
     45 H6         -1.8119    3.5778   -0.9034 H         1 <0>         0.1415
     46 H7         -4.2095    1.3205   -0.0051 H         1 <0>         0.0933
     47 H8         -2.7633    0.7467    0.8595 H         1 <0>         0.0980
     48 H9         -3.5025    4.8612    0.6605 H         1 <0>         0.1043
     49 H10        -4.3557    3.7770   -0.4642 H         1 <0>         0.1009
     50 H11        -6.8320    3.6853    2.9112 H         1 <0>         0.2166
     51 H12        -1.0645    1.1553    1.4018 H         1 <0>         0.1311
     52 H13         0.7552    1.5425    2.9843 H         1 <0>         0.1346
     53 H14        -2.6996    5.0078    2.3029 H         1 <0>         0.1377
     54 H15         2.0620    1.9561    4.1966 H         1 <0>         0.3908
     55 H16         2.8247    3.5967    6.4889 H         1 <0>         0.0964
     56 H17         4.1088    1.1015    5.2879 H         1 <0>         0.0903
     57 H18         4.5490    1.8499    6.8417 H         1 <0>         0.1113
     58 H19         1.5398   -1.8581    8.4482 H         1 <0>         0.1975
     59 H20         2.1163    2.2645   -6.1687 H         1 <0>         0.0993
     60 H21         0.6146    1.8299   -7.0198 H         1 <0>         0.1031
     61 H22         1.0664    3.5410   -6.8292 H         1 <0>         0.0860
     62 H23         0.7766    4.5574   -4.7257 H         1 <0>         0.4186
@<TRIPOS>BOND
     1    1   41 1
     2    1   42 1
     3    1   43 1
     4    1    2 1
     5    2    7 ar
     6    2    3 ar
     7    3   44 1
     8    3    4 ar
     9    4    5 ar
    10    4   38 1
    11    5   35 1
    12    5    6 ar
    13    6   45 1
    14    6    7 ar
    15    7    8 1
    16    8    9 1
    17    8   46 1
    18    8   47 1
    19    9   10 1
    20    9   13 1
    21   10   11 1
    22   10   48 1
    23   10   49 1
    24   11   12 3
    25   12   50 1
    26   13   18 ar
    27   13   14 ar
    28   14   15 ar
    29   14   51 1
    30   15   16 ar
    31   15   52 1
    32   16   17 ar
    33   16   20 1
    34   17   18 ar
    35   17   19 1
    36   18   53 1
    37   20   21 2
    38   20   22 am
    39   22   23 1
    40   22   54 1
    41   23   24 1
    42   23   32 1
    43   23   55 1
    44   24   56 1
    45   24   57 1
    46   24   25 1
    47   25   26 1
    48   26   31 2
    49   26   27 1
    50   27   28 2
    51   27   58 1
    52   28   30 1
    53   29   30 1
    54   30   31 1
    55   32   33 2
    56   32   34 1
    57   35   40 2
    58   35   36 am
    59   36   37 1
    60   36   62 1
    61   37   38 2
    62   37   39 1
    63   39   59 1
    64   39   60 1
    65   39   61 1
@<TRIPOS>MOLECULE
CHEMBL337914
   67    70     0     0     0
SMALL
USER_CHARGES

@<TRIPOS>ATOM
      1 C1         -3.0009   -0.8810   -1.3772 C.3       1 <0>        -0.1240
      2 C2         -2.3070    0.3696   -1.8521 C.ar      1 <0>        -0.0302
      3 C3         -1.6097    0.3513   -3.0394 C.ar      1 <0>        -0.1114
      4 C4         -0.9665    1.5088   -3.4814 C.ar      1 <0>         0.1567
      5 C5         -1.0419    2.6838   -2.7006 C.ar      1 <0>        -0.2018
      6 C6         -1.7525    2.6812   -1.5025 C.ar      1 <0>        -0.0177
      7 C7         -2.3834    1.5276   -1.0898 C.ar      1 <0>        -0.1299
      8 C8         -3.1585    1.5215    0.2025 C.3       1 <0>         0.1673
      9 N1         -3.0305    2.8269    0.8549 N.pl3     1 <0>        -0.6168
     10 C9         -3.9908    3.8923    0.5564 C.3       1 <0>         0.2276
     11 C10        -5.1223    3.8098    1.4943 C.1       1 <0>        -0.2101
     12 C11        -6.0248    3.7441    2.2423 C.1       1 <0>        -0.1826
     13 C12        -1.9976    3.0548    1.7575 C.ar      1 <0>         0.2508
     14 C13        -1.0184    2.0833    1.9523 C.ar      1 <0>        -0.2041
     15 C14        -0.0009    2.2994    2.8367 C.ar      1 <0>        -0.0114
     16 C15         0.0632    3.4995    3.5519 C.ar      1 <0>        -0.2016
     17 C16        -0.9193    4.4788    3.3584 C.ar      1 <0>         0.2023
     18 C17        -1.9417    4.2544    2.4590 C.ar      1 <0>        -0.2405
     19 F1         -0.8636    5.6405    4.0459 F         1 <0>        -0.1140
     20 C18         1.1611    3.7328    4.5069 C.2       1 <0>         0.5596
     21 O1          1.2151    4.7769    5.1280 O.2       1 <0>        -0.5406
     22 N2          2.1052    2.7889    4.6920 N.am      1 <0>        -0.6865
     23 C19         3.1966    3.0208    5.6414 C.3       1 <0>         0.0765
     24 H1          2.8247    3.5967    6.4889 H         1 <0>         0.0837
     25 C20         3.7369    1.6774    6.1354 C.3       1 <0>        -0.1015
     26 C21         2.6515    0.9541    6.9352 C.3       1 <0>        -0.0932
     27 C22         3.1919   -0.3893    7.4292 C.3       1 <0>        -0.4558
     28 S1          1.9050   -1.2469    8.3775 S.o       1 <0>         1.3896
     29 O2          1.6811   -0.5597    9.6010 O.2       1 <0>        -0.8597
     30 C23         2.6719   -2.7549    8.8699 C.2       1 <0>        -0.2718
     31 N3          3.3614   -2.9644    9.9818 N.2       1 <0>        -0.3313
     32 N4          3.7551   -4.1921    9.9708 N.2       1 <0>        -0.1967
     33 N5          3.3364   -4.7571    8.8922 N.2       1 <0>        -0.1937
     34 N6          2.6651   -3.8995    8.2022 N.2       1 <0>        -0.3271
     35 C24         4.3011    3.7865    4.9597 C.2       1 <0>         0.4923
     36 O3          4.1873    4.1086    3.7893 O.co2     1 <0>        -0.6886
     37 O4          5.3087    4.0839    5.5785 O.co2     1 <0>        -0.7004
     38 C25        -0.3530    3.8856   -3.1940 C.2       1 <0>         0.5484
     39 N7          0.3105    3.7850   -4.3693 N.am      1 <0>        -0.6547
     40 C26         0.3296    2.6121   -5.0548 C.2       1 <0>         0.3939
     41 N8         -0.2684    1.5353   -4.6443 N.2       1 <0>        -0.5229
     42 C27         1.0839    2.5582   -6.3583 C.3       1 <0>        -0.1103
     43 O5         -0.3789    4.9304   -2.5699 O.2       1 <0>        -0.5024
     44 H2         -4.0506   -0.8471   -1.6690 H         1 <0>         0.0776
     45 H3         -2.5266   -1.7530   -1.8274 H         1 <0>         0.0737
     46 H4         -2.9275   -0.9474   -0.2917 H         1 <0>         0.0768
     47 H5         -1.5604   -0.5544   -3.6257 H         1 <0>         0.1391
     48 H6         -1.8119    3.5778   -0.9034 H         1 <0>         0.1420
     49 H7         -4.2095    1.3205   -0.0051 H         1 <0>         0.0923
     50 H8         -2.7633    0.7467    0.8595 H         1 <0>         0.0999
     51 H9         -3.5025    4.8612    0.6605 H         1 <0>         0.1034
     52 H10        -4.3557    3.7770   -0.4642 H         1 <0>         0.0992
     53 H11        -6.8320    3.6853    2.9112 H         1 <0>         0.2160
     54 H12        -1.0645    1.1553    1.4018 H         1 <0>         0.1315
     55 H13         0.7552    1.5425    2.9843 H         1 <0>         0.1378
     56 H14        -2.6996    5.0078    2.3029 H         1 <0>         0.1356
     57 H15         2.0620    1.9561    4.1966 H         1 <0>         0.3882
     58 H16         4.0268    1.0660    5.2808 H         1 <0>         0.0619
     59 H17         4.6053    1.8469    6.7720 H         1 <0>         0.0810
     60 H18         2.3617    1.5655    7.7898 H         1 <0>         0.0636
     61 H19         1.7832    0.7845    6.2986 H         1 <0>         0.0676
     62 H20         3.4818   -1.0008    6.5747 H         1 <0>         0.1107
     63 H21         4.0602   -0.2198    8.0659 H         1 <0>         0.0837
     64 H22         2.1163    2.2645   -6.1687 H         1 <0>         0.0988
     65 H23         0.6146    1.8299   -7.0198 H         1 <0>         0.1022
     66 H24         1.0664    3.5410   -6.8292 H         1 <0>         0.0847
     67 H25         0.7766    4.5574   -4.7257 H         1 <0>         0.4176
@<TRIPOS>BOND
     1    1   44 1
     2    1   45 1
     3    1   46 1
     4    1    2 1
     5    2    7 ar
     6    2    3 ar
     7    3   47 1
     8    3    4 ar
     9    4    5 ar
    10    4   41 1
    11    5   38 1
    12    5    6 ar
    13    6   48 1
    14    6    7 ar
    15    7    8 1
    16    8    9 1
    17    8   49 1
    18    8   50 1
    19    9   10 1
    20    9   13 1
    21   10   11 1
    22   10   51 1
    23   10   52 1
    24   11   12 3
    25   12   53 1
    26   13   18 ar
    27   13   14 ar
    28   14   15 ar
    29   14   54 1
    30   15   16 ar
    31   15   55 1
    32   16   17 ar
    33   16   20 1
    34   17   18 ar
    35   17   19 1
    36   18   56 1
    37   20   21 2
    38   20   22 am
    39   22   23 1
    40   22   57 1
    41   23   24 1
    42   23   25 1
    43   23   35 1
    44   25   26 1
    45   25   58 1
    46   25   59 1
    47   26   27 1
    48   26   60 1
    49   26   61 1
    50   27   28 1
    51   27   62 1
    52   27   63 1
    53   28   29 2
    54   28   30 1
    55   30   31 2
    56   30   34 1
    57   31   32 1
    58   32   33 2
    59   33   34 1
    60   35   36 2
    61   35   37 1
    62   38   43 2
    63   38   39 am
    64   39   40 1
    65   39   67 1
    66   40   41 2
    67   40   42 1
    68   42   64 1
    69   42   65 1
    70   42   66 1
@<TRIPOS>MOLECULE
CHEMBL337914__1
   67    70     0     0     0
SMALL
USER_CHARGES

@<TRIPOS>ATOM
      1 C1         -3.0009   -0.8810   -1.3772 C.3       1 <0>        -0.1244
      2 C2         -2.3070    0.3696   -1.8521 C.ar      1 <0>        -0.0301
      3 C3         -1.6097    0.3513   -3.0394 C.ar      1 <0>        -0.1113
      4 C4         -0.9665    1.5088   -3.4814 C.ar      1 <0>         0.1563
      5 C5         -1.0419    2.6838   -2.7006 C.ar      1 <0>        -0.2019
      6 C6         -1.7525    2.6812   -1.5025 C.ar      1 <0>        -0.0178
      7 C7         -2.3834    1.5276   -1.0898 C.ar      1 <0>        -0.1295
      8 C8         -3.1585    1.5215    0.2025 C.3       1 <0>         0.1667
      9 N1         -3.0305    2.8269    0.8549 N.pl3     1 <0>        -0.6168
     10 C9         -3.9908    3.8923    0.5564 C.3       1 <0>         0.2278
     11 C10        -5.1223    3.8098    1.4943 C.1       1 <0>        -0.2101
     12 C11        -6.0248    3.7441    2.2423 C.1       1 <0>        -0.1828
     13 C12        -1.9976    3.0548    1.7575 C.ar      1 <0>         0.2511
     14 C13        -1.0184    2.0833    1.9523 C.ar      1 <0>        -0.2037
     15 C14        -0.0009    2.2994    2.8367 C.ar      1 <0>        -0.0109
     16 C15         0.0632    3.4995    3.5519 C.ar      1 <0>        -0.2022
     17 C16        -0.9193    4.4788    3.3584 C.ar      1 <0>         0.2025
     18 C17        -1.9417    4.2544    2.4590 C.ar      1 <0>        -0.2404
     19 F1         -0.8636    5.6405    4.0459 F         1 <0>        -0.1138
     20 C18         1.1611    3.7328    4.5069 C.2       1 <0>         0.5611
     21 O1          1.2151    4.7769    5.1280 O.2       1 <0>        -0.5413
     22 N2          2.1052    2.7889    4.6920 N.am      1 <0>        -0.6874
     23 C19         3.1966    3.0208    5.6414 C.3       1 <0>         0.0764
     24 H1          2.8247    3.5967    6.4889 H         1 <0>         0.0858
     25 C20         3.7369    1.6774    6.1354 C.3       1 <0>        -0.1019
     26 C21         2.6515    0.9541    6.9352 C.3       1 <0>        -0.0943
     27 C22         3.1919   -0.3893    7.4292 C.3       1 <0>        -0.4550
     28 S1          1.9050   -1.2469    8.3775 S.o       1 <0>         1.3904
     29 O2          0.8662   -1.6598    7.5003 O.2       1 <0>        -0.8612
     30 C23         2.6719   -2.7549    8.8699 C.2       1 <0>        -0.2717
     31 N3          3.3614   -2.9644    9.9818 N.2       1 <0>        -0.3259
     32 N4          3.7551   -4.1921    9.9708 N.2       1 <0>        -0.1933
     33 N5          3.3364   -4.7571    8.8922 N.2       1 <0>        -0.1971
     34 N6          2.6651   -3.8995    8.2022 N.2       1 <0>        -0.3325
     35 C24         4.3011    3.7865    4.9597 C.2       1 <0>         0.4922
     36 O3          4.1873    4.1086    3.7893 O.co2     1 <0>        -0.6886
     37 O4          5.3087    4.0839    5.5785 O.co2     1 <0>        -0.7003
     38 C25        -0.3530    3.8856   -3.1940 C.2       1 <0>         0.5487
     39 N7          0.3105    3.7850   -4.3693 N.am      1 <0>        -0.6546
     40 C26         0.3296    2.6121   -5.0548 C.2       1 <0>         0.3933
     41 N8         -0.2684    1.5353   -4.6443 N.2       1 <0>        -0.5226
     42 C27         1.0839    2.5582   -6.3583 C.3       1 <0>        -0.1101
     43 O5         -0.3789    4.9304   -2.5699 O.2       1 <0>        -0.5024
     44 H2         -4.0506   -0.8471   -1.6690 H         1 <0>         0.0780
     45 H3         -2.5266   -1.7530   -1.8274 H         1 <0>         0.0737
     46 H4         -2.9275   -0.9474   -0.2917 H         1 <0>         0.0766
     47 H5         -1.5604   -0.5544   -3.6257 H         1 <0>         0.1392
     48 H6         -1.8119    3.5778   -0.9034 H         1 <0>         0.1422
     49 H7         -4.2095    1.3205   -0.0051 H         1 <0>         0.0927
     50 H8         -2.7633    0.7467    0.8595 H         1 <0>         0.0993
     51 H9         -3.5025    4.8612    0.6605 H         1 <0>         0.1036
     52 H10        -4.3557    3.7770   -0.4642 H         1 <0>         0.0993
     53 H11        -6.8320    3.6853    2.9112 H         1 <0>         0.2161
     54 H12        -1.0645    1.1553    1.4018 H         1 <0>         0.1306
     55 H13         0.7552    1.5425    2.9843 H         1 <0>         0.1357
     56 H14        -2.6996    5.0078    2.3029 H         1 <0>         0.1362
     57 H15         2.0620    1.9561    4.1966 H         1 <0>         0.3879
     58 H16         4.0268    1.0660    5.2808 H         1 <0>         0.0569
     59 H17         4.6053    1.8469    6.7720 H         1 <0>         0.0859
     60 H18         2.3617    1.5655    7.7898 H         1 <0>         0.0719
     61 H19         1.7832    0.7845    6.2986 H         1 <0>         0.0606
     62 H20         3.4818   -1.0008    6.5747 H         1 <0>         0.0813
     63 H21         4.0602   -0.2198    8.0659 H         1 <0>         0.1127
     64 H22         2.1163    2.2645   -6.1687 H         1 <0>         0.0986
     65 H23         0.6146    1.8299   -7.0198 H         1 <0>         0.1022
     66 H24         1.0664    3.5410   -6.8292 H         1 <0>         0.0848
     67 H25         0.7766    4.5574   -4.7257 H         1 <0>         0.4176
@<TRIPOS>BOND
     1    1   44 1
     2    1   45 1
     3    1   46 1
     4    1    2 1
     5    2    7 ar
     6    2    3 ar
     7    3   47 1
     8    3    4 ar
     9    4    5 ar
    10    4   41 1
    11    5   38 1
    12    5    6 ar
    13    6   48 1
    14    6    7 ar
    15    7    8 1
    16    8    9 1
    17    8   49 1
    18    8   50 1
    19    9   10 1
    20    9   13 1
    21   10   11 1
    22   10   51 1
    23   10   52 1
    24   11   12 3
    25   12   53 1
    26   13   18 ar
    27   13   14 ar
    28   14   15 ar
    29   14   54 1
    30   15   16 ar
    31   15   55 1
    32   16   17 ar
    33   16   20 1
    34   17   18 ar
    35   17   19 1
    36   18   56 1
    37   20   21 2
    38   20   22 am
    39   22   23 1
    40   22   57 1
    41   23   24 1
    42   23   25 1
    43   23   35 1
    44   25   26 1
    45   25   58 1
    46   25   59 1
    47   26   27 1
    48   26   60 1
    49   26   61 1
    50   27   28 1
    51   27   62 1
    52   27   63 1
    53   28   29 2
    54   28   30 1
    55   30   31 2
    56   30   34 1
    57   31   32 1
    58   32   33 2
    59   33   34 1
    60   35   36 2
    61   35   37 1
    62   38   43 2
    63   38   39 am
    64   39   40 1
    65   39   67 1
    66   40   41 2
    67   40   42 1
    68   42   64 1
    69   42   65 1
    70   42   66 1
@<TRIPOS>MOLECULE
CHEMBL1097931
   53    55     0     0     0
SMALL
USER_CHARGES

@<TRIPOS>ATOM
      1 C1         -0.0187    1.5258    0.0104 C.3       1 <0>        -0.1753
      2 C2          0.0021   -0.0041    0.0020 C.3       1 <0>         0.1176
      3 N1         -1.3723   -0.5112    0.0124 N.pl3     1 <0>        -0.5514
      4 C3         -2.0716   -0.7579   -1.2510 C.3       1 <0>         0.1716
      5 C4         -1.8197   -2.1754   -1.6961 C.ar      1 <0>        -0.1344
      6 C5         -0.7271   -2.4591   -2.5052 C.ar      1 <0>        -0.0589
      7 C6         -0.4755   -3.7458   -2.9251 C.ar      1 <0>        -0.1184
      8 C7         -1.3279   -4.7802   -2.5333 C.ar      1 <0>         0.1589
      9 C8         -2.4378   -4.4881   -1.7101 C.ar      1 <0>        -0.1992
     10 C9         -2.6720   -3.1796   -1.2922 C.ar      1 <0>        -0.0077
     11 C10        -3.3162   -5.5995   -1.3157 C.2       1 <0>         0.5438
     12 O1         -4.2895   -5.4159   -0.6081 O.2       1 <0>        -0.4871
     13 N2         -3.0006   -6.8346   -1.7705 N.am      1 <0>        -0.6548
     14 H1         -3.5573   -7.5918   -1.5307 H         1 <0>         0.4187
     15 C11        -1.9113   -7.0233   -2.5602 C.2       1 <0>         0.3971
     16 N3         -1.1179   -6.0621   -2.9241 N.2       1 <0>        -0.5279
     17 C12        -1.6081   -8.4201   -3.0379 C.3       1 <0>        -0.1100
     18 C13        -2.0081   -0.7563    1.2120 C.2       1 <0>         0.2510
     19 N4         -3.2334   -1.2165    1.4290 N.2       1 <0>        -0.3637
     20 N5         -3.6808   -1.3914    2.5979 N.2       1 <0>        -0.1799
     21 C14        -2.8983   -1.1049    3.6338 C.2       1 <0>        -0.0254
     22 S1         -1.4265   -0.5558    2.7815 S.3       1 <0>         0.1317
     23 C15        -3.1663   -1.2136    5.0738 C.2       1 <0>         0.6019
     24 O2         -2.3094   -0.8975    5.8777 O.2       1 <0>        -0.5417
     25 N6         -4.3614   -1.6636    5.5047 N.am      1 <0>        -0.6492
     26 C16        -4.6288   -1.7720    6.9411 C.3       1 <0>         0.0736
     27 H2         -4.1285   -0.9583    7.4662 H         1 <0>         0.0823
     28 C17        -6.1365   -1.6869    7.1870 C.3       1 <0>        -0.0827
     29 C18        -6.6414   -0.2997    6.7849 C.3       1 <0>        -0.1789
     30 C19        -8.1264   -0.2159    7.0272 C.2       1 <0>         0.4922
     31 O3         -8.7254   -1.1767    7.4795 O.co2     1 <0>        -0.6975
     32 O4         -8.7288    0.8126    6.7708 O.co2     1 <0>        -0.7198
     33 C20        -4.1104   -3.0922    7.4503 C.2       1 <0>         0.4988
     34 O5         -3.7220   -3.1915    8.6017 O.co2     1 <0>        -0.6987
     35 O6         -4.0795   -4.0611    6.7108 O.co2     1 <0>        -0.6946
     36 H3          1.0039    1.9031    0.0027 H         1 <0>         0.0726
     37 H4         -0.5459    1.8868   -0.8726 H         1 <0>         0.0621
     38 H5         -0.5289    1.8773    0.9072 H         1 <0>         0.0637
     39 H6          0.5123   -0.3556   -0.8948 H         1 <0>         0.0899
     40 H7          0.5293   -0.3651    0.8851 H         1 <0>         0.0803
     41 H8         -3.1417   -0.6062   -1.1097 H         1 <0>         0.1003
     42 H9         -1.7041   -0.0678   -2.0105 H         1 <0>         0.0947
     43 H10        -0.0669   -1.6602   -2.8091 H         1 <0>         0.1317
     44 H11         0.3769   -3.9542   -3.5547 H         1 <0>         0.1380
     45 H12        -3.5175   -2.9538   -0.6594 H         1 <0>         0.1502
     46 H13        -2.1125   -8.5966   -3.9879 H         1 <0>         0.0968
     47 H14        -0.5322   -8.5329   -3.1713 H         1 <0>         0.1024
     48 H15        -1.9603   -9.1409   -2.3001 H         1 <0>         0.0868
     49 H16        -5.0446   -1.9156    4.8639 H         1 <0>         0.4039
     50 H17        -6.6451   -2.4453    6.5918 H         1 <0>         0.0632
     51 H18        -6.3423   -1.8562    8.2439 H         1 <0>         0.0755
     52 H19        -6.1328    0.4587    7.3801 H         1 <0>         0.0531
     53 H20        -6.4355   -0.1305    5.7280 H         1 <0>         0.0529
@<TRIPOS>BOND
     1    1    2 1
     2    1   36 1
     3    1   37 1
     4    1   38 1
     5    2    3 1
     6    2   39 1
     7    2   40 1
     8    3    4 1
     9    3   18 1
    10    4    5 1
    11    4   41 1
    12    4   42 1
    13    5   10 ar
    14    5    6 ar
    15    6    7 ar
    16    6   43 1
    17    7    8 ar
    18    7   44 1
    19    8   16 1
    20    8    9 ar
    21    9   10 ar
    22    9   11 1
    23   10   45 1
    24   11   12 2
    25   11   13 am
    26   13   14 1
    27   13   15 1
    28   15   16 2
    29   15   17 1
    30   17   46 1
    31   17   47 1
    32   17   48 1
    33   18   22 1
    34   18   19 2
    35   19   20 1
    36   20   21 2
    37   21   22 1
    38   21   23 1
    39   23   24 2
    40   23   25 am
    41   25   26 1
    42   25   49 1
    43   26   27 1
    44   26   28 1
    45   26   33 1
    46   28   29 1
    47   28   50 1
    48   28   51 1
    49   29   30 1
    50   29   52 1
    51   29   53 1
    52   30   31 2
    53   30   32 1
    54   33   34 2
    55   33   35 1
@<TRIPOS>MOLECULE
CHEMBL308223
   36    39     0     0     0
SMALL
USER_CHARGES

@<TRIPOS>ATOM
      1 C1          0.9316    2.1802   -0.2228 C.ar      1 <0>        -0.1070
      2 C2          2.2146    2.6093   -0.3900 C.ar      1 <0>        -0.0815
      3 C3          3.2832    1.6978   -0.3953 C.ar      1 <0>        -0.0167
      4 C4          4.6177    2.0922   -0.5922 C.ar      1 <0>        -0.0227
      5 C5          5.6016    1.1489   -0.5777 C.ar      1 <0>        -0.0311
      6 C6          5.3203   -0.2004   -0.3655 C.ar      1 <0>        -0.0665
      7 C7          4.0397   -0.6198   -0.1705 C.ar      1 <0>        -0.0544
      8 C8          3.0080    0.3270   -0.2026 C.ar      1 <0>        -0.0150
      9 C9          1.6201   -0.1094   -0.0432 C.ar      1 <0>        -0.1800
     10 C10         0.6153    0.8341   -0.0524 C.ar      1 <0>        -0.0081
     11 C11         1.3891   -1.5595    0.1088 C.2       1 <0>         0.5488
     12 O1          0.3740   -2.0023    0.6092 O.2       1 <0>        -0.4189
     13 O2          2.3837   -2.3700   -0.3469 O.3       1 <0>        -0.3741
     14 C12         3.7129   -2.0670    0.0851 C.3       1 <0>         0.4126
     15 C13         3.8308   -2.3493    1.5607 C.ar      1 <0>        -0.1588
     16 C14         4.9662   -2.9627    2.0574 C.ar      1 <0>        -0.0655
     17 C15         5.0771   -3.2232    3.4096 C.ar      1 <0>        -0.1286
     18 C16         4.0485   -2.8686    4.2699 C.ar      1 <0>         0.1395
     19 C17         2.9097   -2.2524    3.7695 C.ar      1 <0>        -0.0584
     20 C18         2.8062   -1.9894    2.4161 C.ar      1 <0>        -0.0847
     21 Cl1         1.6199   -1.8068    4.8425 Cl        1 <0>        -0.0393
     22 O3          4.1552   -3.1243    5.6006 O.3       1 <0>        -0.4826
     23 O4          4.6386   -2.8911   -0.6262 O.3       1 <0>        -0.5073
     24 N1          4.9513    3.5172   -0.8136 N.pl3     1 <0>         0.0371
     25 O5          6.1076    3.8653   -0.8727 O.2       1 <0>        -0.1399
     26 O6          4.0674    4.3331   -0.9353 O.3       1 <0>        -0.1547
     27 H1          0.1341    2.9084   -0.2178 H         1 <0>         0.1509
     28 H2          2.4117    3.6632   -0.5203 H         1 <0>         0.1776
     29 H3          6.6255    1.4544   -0.7350 H         1 <0>         0.1667
     30 H4          6.1259   -0.9197   -0.3560 H         1 <0>         0.1654
     31 H5         -0.4137    0.5310    0.0725 H         1 <0>         0.1547
     32 H6          5.7671   -3.2388    1.3875 H         1 <0>         0.1510
     33 H7          5.9639   -3.7030    3.7965 H         1 <0>         0.1508
     34 H8          1.9223   -1.5064    2.0263 H         1 <0>         0.1357
     35 H9          4.5607   -2.4076    6.1076 H         1 <0>         0.3999
     36 H10         4.4908   -3.8397   -0.5098 H         1 <0>         0.4050
@<TRIPOS>BOND
     1    1   10 ar
     2    1    2 ar
     3    1   27 1
     4    2    3 ar
     5    2   28 1
     6    3    8 ar
     7    3    4 ar
     8    4    5 ar
     9    4   24 1
    10    5    6 ar
    11    5   29 1
    12    6    7 ar
    13    6   30 1
    14    7   14 1
    15    7    8 ar
    16    8    9 ar
    17    9   10 ar
    18    9   11 1
    19   10   31 1
    20   11   12 2
    21   11   13 1
    22   13   14 1
    23   14   15 1
    24   14   23 1
    25   15   20 ar
    26   15   16 ar
    27   16   17 ar
    28   16   32 1
    29   17   18 ar
    30   17   33 1
    31   18   19 ar
    32   18   22 1
    33   19   20 ar
    34   19   21 1
    35   20   34 1
    36   22   35 1
    37   23   36 1
    38   24   25 2
    39   24   26 1
@<TRIPOS>MOLECULE
CHEMBL308223__1
   36    39     0     0     0
SMALL
USER_CHARGES

@<TRIPOS>ATOM
      1 C1         -0.0155    1.3905    0.0774 C.ar      1 <0>        -0.1056
      2 C2          1.1279    2.1320    0.0489 C.ar      1 <0>        -0.0844
      3 C3          2.3873    1.5112    0.0119 C.ar      1 <0>        -0.0182
      4 C4          3.5903    2.2353   -0.0466 C.ar      1 <0>        -0.0189
      5 C5          4.7748    1.5612   -0.0735 C.ar      1 <0>        -0.0315
      6 C6          4.8260    0.1679   -0.0377 C.ar      1 <0>        -0.0734
      7 C7          3.6814   -0.5671    0.0196 C.ar      1 <0>        -0.0502
      8 C8          2.4506    0.1013    0.0262 C.ar      1 <0>        -0.0113
      9 C9          1.2076   -0.6713    0.0389 C.ar      1 <0>        -0.1683
     10 C10         0.0027   -0.0026    0.0697 C.ar      1 <0>        -0.0112
     11 C11         1.3346   -2.1417    0.0069 C.2       1 <0>         0.5472
     12 O1          0.4413   -2.8750    0.3824 O.2       1 <0>        -0.4195
     13 O2          2.5147   -2.6253   -0.4699 O.3       1 <0>        -0.3686
     14 C12         3.7111   -2.0710    0.0840 C.3       1 <0>         0.4019
     15 C13         4.8990   -2.5776   -0.6926 C.ar      1 <0>        -0.1281
     16 C14         4.7731   -2.8599   -2.0404 C.ar      1 <0>        -0.0575
     17 C15         5.8602   -3.3249   -2.7549 C.ar      1 <0>        -0.1323
     18 C16         7.0795   -3.5083   -2.1197 C.ar      1 <0>         0.1410
     19 C17         7.2041   -3.2239   -0.7667 C.ar      1 <0>        -0.0674
     20 C18         6.1143   -2.7539   -0.0575 C.ar      1 <0>        -0.0710
     21 Cl1         8.7282   -3.4519    0.0325 Cl        1 <0>        -0.0411
     22 O3          8.1503   -3.9661   -2.8206 O.3       1 <0>        -0.4839
     23 O4          3.8316   -2.4813    1.4475 O.3       1 <0>        -0.5425
     24 N1          3.5714    3.7151   -0.0792 N.pl3     1 <0>         0.0365
     25 O5          4.6080    4.3344   -0.0190 O.2       1 <0>        -0.1395
     26 O6          2.5193    4.3044   -0.1660 O.3       1 <0>        -0.1533
     27 H1         -0.9672    1.8998    0.1115 H         1 <0>         0.1502
     28 H2          1.0647    3.2101    0.0545 H         1 <0>         0.1769
     29 H3          5.6973    2.1204   -0.1242 H         1 <0>         0.1666
     30 H4          5.7828   -0.3327   -0.0560 H         1 <0>         0.1576
     31 H5         -0.9242   -0.5566    0.0882 H         1 <0>         0.1537
     32 H6          3.8236   -2.7170   -2.5349 H         1 <0>         0.1433
     33 H7          5.7606   -3.5458   -3.8074 H         1 <0>         0.1482
     34 H8          6.2112   -2.5285    0.9942 H         1 <0>         0.1521
     35 H9          8.6872   -3.2676   -3.2193 H         1 <0>         0.3999
     36 H10         3.8572   -3.4403    1.5688 H         1 <0>         0.4026
@<TRIPOS>BOND
     1    1   10 ar
     2    1    2 ar
     3    1   27 1
     4    2    3 ar
     5    2   28 1
     6    3    8 ar
     7    3    4 ar
     8    4    5 ar
     9    4   24 1
    10    5    6 ar
    11    5   29 1
    12    6    7 ar
    13    6   30 1
    14    7   14 1
    15    7    8 ar
    16    8    9 ar
    17    9   10 ar
    18    9   11 1
    19   10   31 1
    20   11   12 2
    21   11   13 1
    22   13   14 1
    23   14   15 1
    24   14   23 1
    25   15   20 ar
    26   15   16 ar
    27   16   17 ar
    28   16   32 1
    29   17   18 ar
    30   17   33 1
    31   18   19 ar
    32   18   22 1
    33   19   20 ar
    34   19   21 1
    35   20   34 1
    36   22   35 1
    37   23   36 1
    38   24   25 2
    39   24   26 1
@<TRIPOS>MOLECULE
CHEMBL423282
   47    50     0     0     0
SMALL
USER_CHARGES

@<TRIPOS>ATOM
      1 C1         -0.0127    1.0858    0.0080 C.3       1 <0>        -0.1278
      2 C2         -0.7416    1.5850   -1.2129 C.ar      1 <0>        -0.0409
      3 C3         -0.0399    1.8247   -2.3824 C.ar      1 <0>        -0.0828
      4 C4         -0.6822    2.2818   -3.5141 C.ar      1 <0>        -0.0732
      5 C5         -2.0584    2.5081   -3.4891 C.ar      1 <0>         0.1469
      6 C6         -2.7798    2.2648   -2.2985 C.ar      1 <0>        -0.1552
      7 C7         -2.1125    1.7959   -1.1589 C.ar      1 <0>        -0.0942
      8 S1         -3.0035    1.4829    0.3287 S.3       1 <0>         0.0623
      9 C8         -2.9513    3.0201    1.1883 C.ar      1 <0>        -0.0340
     10 C9         -2.3000    4.1110    0.6255 C.ar      1 <0>        -0.1535
     11 C10        -2.2615    5.3143    1.3018 C.ar      1 <0>         0.0025
     12 C11        -2.8697    5.4343    2.5381 C.ar      1 <0>        -0.6710
     13 C12        -3.5187    4.3506    3.1013 C.ar      1 <0>         0.0023
     14 C13        -3.5662    3.1459    2.4281 C.ar      1 <0>        -0.1230
     15 S2         -2.8170    6.9713    3.3980 S.o2      1 <0>         2.5829
     16 O1         -2.9895    6.6717    4.7763 O.2       1 <0>        -0.9351
     17 O2         -1.6829    7.6727    2.9069 O.2       1 <0>        -0.9366
     18 C14        -4.2336    7.8945    2.9022 C.ar      1 <0>        -0.6578
     19 C15        -4.1628    8.7334    1.8058 C.ar      1 <0>        -0.0232
     20 C16        -5.2742    9.4577    1.4168 C.ar      1 <0>        -0.1396
     21 C17        -6.4564    9.3426    2.1240 C.ar      1 <0>        -0.0631
     22 C18        -6.5273    8.5030    3.2198 C.ar      1 <0>        -0.1386
     23 C19        -5.4172    7.7755    3.6062 C.ar      1 <0>        -0.0218
     24 C20        -4.2249    2.5129   -2.3046 C.2       1 <0>         0.5384
     25 N1         -4.7760    2.9611   -3.4566 N.am      1 <0>        -0.6517
     26 C21        -4.0066    3.1681   -4.5572 C.2       1 <0>         0.3986
     27 N2         -2.7256    2.9579   -4.5819 N.2       1 <0>        -0.5201
     28 C22        -4.6739    3.6670   -5.8129 C.3       1 <0>        -0.1133
     29 O3         -4.9032    2.3225   -1.3114 O.2       1 <0>        -0.4750
     30 H1          0.0021   -0.0041    0.0020 H         1 <0>         0.0860
     31 H2          1.0099    1.4631    0.0003 H         1 <0>         0.0773
     32 H3         -0.5229    1.4373    0.9048 H         1 <0>         0.0801
     33 H4          1.0258    1.6516   -2.4086 H         1 <0>         0.1455
     34 H5         -0.1204    2.4646   -4.4182 H         1 <0>         0.1488
     35 H6         -1.8243    4.0178   -0.3396 H         1 <0>         0.1267
     36 H7         -1.7555    6.1625    0.8649 H         1 <0>         0.1426
     37 H8         -3.9923    4.4478    4.0671 H         1 <0>         0.1480
     38 H9         -4.0767    2.3013    2.8666 H         1 <0>         0.1401
     39 H10        -3.2392    8.8233    1.2533 H         1 <0>         0.1413
     40 H11        -5.2187   10.1137    0.5607 H         1 <0>         0.1344
     41 H12        -7.3244    9.9090    1.8205 H         1 <0>         0.1326
     42 H13        -7.4509    8.4133    3.7725 H         1 <0>         0.1354
     43 H14        -5.4737    7.1167    4.4601 H         1 <0>         0.1431
     44 H15        -4.6699    4.7570   -5.8180 H         1 <0>         0.1005
     45 H16        -4.1322    3.2976   -6.6836 H         1 <0>         0.1061
     46 H17        -5.7023    3.3073   -5.8453 H         1 <0>         0.0883
     47 H18        -5.7293    3.1360   -3.4969 H         1 <0>         0.4209
@<TRIPOS>BOND
     1    1   30 1
     2    1   31 1
     3    1   32 1
     4    1    2 1
     5    2    7 ar
     6    2    3 ar
     7    3   33 1
     8    3    4 ar
     9    4   34 1
    10    4    5 ar
    11    5    6 ar
    12    5   27 1
    13    6   24 1
    14    6    7 ar
    15    7    8 1
    16    8    9 1
    17    9   14 ar
    18    9   10 ar
    19   10   11 ar
    20   10   35 1
    21   11   12 ar
    22   11   36 1
    23   12   13 ar
    24   12   15 1
    25   13   14 ar
    26   13   37 1
    27   14   38 1
    28   15   16 2
    29   15   17 2
    30   15   18 1
    31   18   23 ar
    32   18   19 ar
    33   19   20 ar
    34   19   39 1
    35   20   21 ar
    36   20   40 1
    37   21   22 ar
    38   21   41 1
    39   22   23 ar
    40   22   42 1
    41   23   43 1
    42   24   29 2
    43   24   25 am
    44   25   26 1
    45   25   47 1
    46   26   27 2
    47   26   28 1
    48   28   44 1
    49   28   45 1
    50   28   46 1
@<TRIPOS>MOLECULE
CHEMBL326727
   51    53     0     0     0
SMALL
USER_CHARGES

@<TRIPOS>ATOM
      1 C1         -0.0178    1.4608    0.0101 C.3       1 <0>         0.1026
      2 N1          0.0021   -0.0041    0.0020 N.pl3     1 <0>        -0.5817
      3 C2          0.0241   -0.7433    1.2666 C.3       1 <0>         0.1656
      4 C3         -1.3889   -1.0161    1.7137 C.ar      1 <0>        -0.1578
      5 C4         -2.0433   -0.0956    2.5222 C.ar      1 <0>        -0.0479
      6 C5         -3.3243   -0.3155    2.9438 C.ar      1 <0>        -0.1362
      7 C6         -3.9889   -1.4828    2.5571 C.ar      1 <0>         0.2106
      8 C7         -3.3200   -2.4171    1.7340 C.ar      1 <0>        -0.2217
      9 C8         -2.0147   -2.1647    1.3143 C.ar      1 <0>        -0.0055
     10 C9         -4.0400   -3.6362    1.3420 C.2       1 <0>         0.5524
     11 N2         -5.3055   -3.7889    1.7961 N.am      1 <0>        -0.6682
     12 C10        -5.8777   -2.8365    2.5882 C.2       1 <0>         0.6440
     13 N3         -5.2578   -1.7418    2.9516 N.2       1 <0>        -0.5986
     14 N4         -7.1635   -3.0350    3.0242 N.pl3     1 <0>        -0.8280
     15 O1         -3.5175   -4.4777    0.6343 O.2       1 <0>        -0.4662
     16 C11         0.0000   -0.6902   -1.2014 C.2       1 <0>         0.0844
     17 C12        -0.0136   -0.1667   -2.4749 C.2       1 <0>        -0.2821
     18 C13        -0.0131   -1.0293   -3.5393 C.2       1 <0>        -0.0351
     19 C14         0.0014   -2.3820   -3.2253 C.2       1 <0>        -0.2599
     20 S1          0.0209   -2.3526   -1.4432 S.3       1 <0>         0.1880
     21 C15         0.0056   -3.4987   -4.0976 C.2       1 <0>         0.5937
     22 O2         -0.0043   -3.3294   -5.3036 O.2       1 <0>        -0.5533
     23 N5          0.0205   -4.7482   -3.5927 N.am      1 <0>        -0.6787
     24 C16         0.0248   -5.9027   -4.4945 C.3       1 <0>         0.0750
     25 H1         -0.5729   -5.6763   -5.3775 H         1 <0>         0.0777
     26 C17        -0.5688   -7.1149   -3.7740 C.3       1 <0>        -0.0817
     27 C18        -2.0431   -6.8509   -3.4615 C.3       1 <0>        -0.1770
     28 C19        -2.6278   -8.0449   -2.7518 C.2       1 <0>         0.4938
     29 O3         -1.9300   -9.0169   -2.5177 O.co2     1 <0>        -0.6997
     30 O4         -3.7986   -8.0389   -2.4117 O.co2     1 <0>        -0.7198
     31 C20         1.4402   -6.2094   -4.9112 C.2       1 <0>         0.4993
     32 O5          2.3654   -5.9583   -4.1579 O.co2     1 <0>        -0.6983
     33 O6          1.6601   -6.7087   -6.0015 O.co2     1 <0>        -0.7028
     34 H2          1.0048    1.8381    0.0023 H         1 <0>         0.0507
     35 H3         -0.5450    1.8219   -0.8730 H         1 <0>         0.0681
     36 H4         -0.5280    1.8123    0.9069 H         1 <0>         0.0675
     37 H5          0.5496   -1.6879    1.1262 H         1 <0>         0.0877
     38 H6          0.5371   -0.1514    2.0246 H         1 <0>         0.0931
     39 H7         -1.5319    0.8071    2.8223 H         1 <0>         0.1262
     40 H8         -3.8206    0.4087    3.5728 H         1 <0>         0.1336
     41 H9         -1.5001   -2.8728    0.6818 H         1 <0>         0.1398
     42 H10        -7.6439   -3.8379    2.7682 H         1 <0>         0.4132
     43 H11        -7.5921   -2.3724    3.5883 H         1 <0>         0.4246
     44 H12        -0.0248    0.9019   -2.6314 H         1 <0>         0.1250
     45 H13        -0.0237   -0.6786   -4.5607 H         1 <0>         0.1429
     46 H14         0.0284   -4.8831   -2.6321 H         1 <0>         0.3887
     47 H15        -0.4846   -7.9943   -4.4126 H         1 <0>         0.0716
     48 H16        -0.0256   -7.2872   -2.8449 H         1 <0>         0.0596
     49 H17        -2.1273   -5.9716   -2.8229 H         1 <0>         0.0527
     50 H18        -2.5863   -6.6786   -4.3906 H         1 <0>         0.0509
     51 H19        -5.8102   -4.5818    1.5563 H         1 <0>         0.4172
@<TRIPOS>BOND
     1    1    2 1
     2    1   34 1
     3    1   35 1
     4    1   36 1
     5    2    3 1
     6    2   16 1
     7    3    4 1
     8    3   37 1
     9    3   38 1
    10    4    9 ar
    11    4    5 ar
    12    5    6 ar
    13    5   39 1
    14    6    7 ar
    15    6   40 1
    16    7   13 1
    17    7    8 ar
    18    8    9 ar
    19    8   10 1
    20    9   41 1
    21   10   11 am
    22   10   15 2
    23   11   12 1
    24   11   51 1
    25   12   13 2
    26   12   14 1
    27   14   42 1
    28   14   43 1
    29   16   20 1
    30   16   17 2
    31   17   18 1
    32   17   44 1
    33   18   19 2
    34   18   45 1
    35   19   20 1
    36   19   21 1
    37   21   22 2
    38   21   23 am
    39   23   24 1
    40   23   46 1
    41   24   25 1
    42   24   26 1
    43   24   31 1
    44   26   27 1
    45   26   47 1
    46   26   48 1
    47   27   28 1
    48   27   49 1
    49   27   50 1
    50   28   29 2
    51   28   30 1
    52   31   32 2
    53   31   33 1
@<TRIPOS>MOLECULE
CHEMBL56637
   50    54     0     0     0
SMALL
USER_CHARGES

@<TRIPOS>ATOM
      1 C1         -0.0115    1.4398   -0.0554 C.3       1 <0>         0.1081
      2 N1          0.0128   -0.0247   -0.0245 N.pl3     1 <0>        -0.6775
      3 C2          0.0145   -0.7303    1.2594 C.3       1 <0>         0.1790
      4 C3         -1.4055   -0.9961    1.6883 C.ar      1 <0>        -0.0546
      5 C4         -2.0987   -0.0728    2.4606 C.ar      1 <0>        -0.1655
      6 C5         -3.3984   -0.3460    2.8373 C.ar      1 <0>         0.1193
      7 N2         -3.9864   -1.4699    2.4736 N.ar      1 <0>        -0.4740
      8 C6         -3.3592   -2.3751    1.7376 C.ar      1 <0>         0.1098
      9 C7         -2.0496   -2.1621    1.3172 C.ar      1 <0>        -0.1437
     10 S1         -4.1925   -3.8590    1.2810 S.3       1 <0>         0.0211
     11 C8         -5.7165   -3.7803    2.1619 C.ar      1 <0>        -0.1282
     12 C9         -6.8489   -3.2581    1.5489 C.ar      1 <0>        -0.0583
     13 C10        -8.0417   -3.1984    2.2420 C.ar      1 <0>        -0.1286
     14 C11        -8.1100   -3.6572    3.5449 C.ar      1 <0>        -0.0836
     15 C12        -6.9849   -4.1776    4.1581 C.ar      1 <0>        -0.1261
     16 C13        -5.7901   -4.2456    3.4691 C.ar      1 <0>        -0.0581
     17 C14         0.0344   -0.7466   -1.2164 C.ar      1 <0>         0.2486
     18 C15         1.2347   -1.0996   -1.8115 C.ar      1 <0>        -0.1256
     19 C16         1.3056   -1.8195   -3.0013 C.ar      1 <0>        -0.0160
     20 C17         0.1463   -2.2161   -3.6441 C.ar      1 <0>         0.0704
     21 C18        -1.0530   -1.8581   -3.0392 C.ar      1 <0>        -0.0641
     22 C19        -1.1657   -1.1418   -1.8449 C.ar      1 <0>        -0.0644
     23 C20        -2.4587   -0.8719   -1.3739 C.ar      1 <0>         0.0250
     24 C21        -3.5346   -1.3204   -2.0930 C.ar      1 <0>        -0.1540
     25 C22        -3.4077   -2.0390   -3.2808 C.ar      1 <0>         0.0608
     26 C23        -2.1499   -2.3166   -3.7833 C.ar      1 <0>        -0.1860
     27 C24        -1.5504   -3.0093   -4.9344 C.cat     1 <0>         0.5653
     28 N3         -0.1712   -2.9201   -4.8032 N.pl3     1 <0>        -0.5843
     29 N4         -2.1978   -3.6007   -5.9036 N.pl3     1 <0>        -0.7277
     30 H1          1.0099    1.8202   -0.0549 H         1 <0>         0.0515
     31 H2         -0.5239    1.7757   -0.9569 H         1 <0>         0.0591
     32 H3         -0.5387    1.8130    0.8226 H         1 <0>         0.0700
     33 H4          0.5451   -1.6765    1.1533 H         1 <0>         0.0845
     34 H5          0.5121   -0.1169    2.0105 H         1 <0>         0.0965
     35 H6         -1.6255    0.8495    2.7636 H         1 <0>         0.1385
     36 H7         -3.9408    0.3693    3.4377 H         1 <0>         0.1604
     37 H8         -1.5419   -2.8994    0.7130 H         1 <0>         0.1312
     38 H9         -6.7962   -2.8990    0.5317 H         1 <0>         0.1257
     39 H10        -8.9223   -2.7927    1.7662 H         1 <0>         0.1295
     40 H11        -9.0441   -3.6086    4.0849 H         1 <0>         0.1296
     41 H12        -7.0417   -4.5346    5.1758 H         1 <0>         0.1303
     42 H13        -4.9129   -4.6559    3.9472 H         1 <0>         0.1273
     43 H14         2.1557   -0.8032   -1.3318 H         1 <0>         0.1514
     44 H15         2.2679   -2.0685   -3.4237 H         1 <0>         0.1491
     45 H16        -2.6039   -0.3189   -0.4576 H         1 <0>         0.1476
     46 H17        -4.5267   -1.1081   -1.7227 H         1 <0>         0.1491
     47 H18        -4.2885   -2.3710   -3.8103 H         1 <0>         0.1507
     48 H19        -3.1678   -3.6084   -5.9050 H         1 <0>         0.4514
     49 H20        -1.7084   -4.0319   -6.6215 H         1 <0>         0.4352
     50 H21         0.4739   -3.2918   -5.4248 H         1 <0>         0.4440
@<TRIPOS>BOND
     1    1    2 1
     2    1   30 1
     3    1   31 1
     4    1   32 1
     5    2    3 1
     6    2   17 1
     7    3    4 1
     8    3   33 1
     9    3   34 1
    10    4    9 ar
    11    4    5 ar
    12    5    6 ar
    13    5   35 1
    14    6    7 ar
    15    6   36 1
    16    7    8 ar
    17    8    9 ar
    18    8   10 1
    19    9   37 1
    20   10   11 1
    21   11   16 ar
    22   11   12 ar
    23   12   13 ar
    24   12   38 1
    25   13   14 ar
    26   13   39 1
    27   14   15 ar
    28   14   40 1
    29   15   16 ar
    30   15   41 1
    31   16   42 1
    32   17   22 ar
    33   17   18 ar
    34   18   19 ar
    35   18   43 1
    36   19   20 ar
    37   19   44 1
    38   20   28 1
    39   20   21 ar
    40   21   26 ar
    41   21   22 ar
    42   22   23 ar
    43   23   24 ar
    44   23   45 1
    45   24   25 ar
    46   24   46 1
    47   25   26 ar
    48   25   47 1
    49   26   27 1
    50   27   28 1
    51   27   29 2
    52   28   50 1
    53   29   48 1
    54   29   49 1
@<TRIPOS>MOLECULE
CHEMBL202337
   40    43     0     0     0
SMALL
USER_CHARGES

@<TRIPOS>ATOM
      1 C1         -0.0187    1.5258    0.0104 C.3       1 <0>        -0.1481
      2 C2          0.0021   -0.0041    0.0020 C.3       1 <0>        -0.0631
      3 C3          0.7074   -0.4901   -1.2379 C.2       1 <0>         0.1090
      4 C4          2.0415   -0.6455   -1.3648 C.2       1 <0>        -0.1416
      5 C5          2.2787   -1.1338   -2.7252 C.2       1 <0>        -0.2864
      6 C6          1.0195   -1.2379   -3.3338 C.2       1 <0>         0.3562
      7 N1          0.0891   -0.8502   -2.4156 N.pl3     1 <0>        -0.5428
      8 H1         -0.8683   -0.8285   -2.5698 H         1 <0>         0.4233
      9 N2          0.9405   -1.6687   -4.6020 N.2       1 <0>        -0.5927
     10 C7          2.0184   -1.9926   -5.2787 C.2       1 <0>         0.6594
     11 N3          3.2671   -1.9106   -4.7365 N.am      1 <0>        -0.6621
     12 C8          3.4288   -1.4847   -3.4633 C.2       1 <0>         0.5783
     13 O1          4.5391   -1.4065   -2.9661 O.2       1 <0>        -0.5067
     14 N4          1.8839   -2.4283   -6.5731 N.pl3     1 <0>        -0.8204
     15 S1          3.2608   -0.3233   -0.1342 S.3       1 <0>         0.0562
     16 C9          3.4209   -1.8567    0.7189 C.ar      1 <0>        -0.0911
     17 C10         2.6474   -2.9554    0.3219 C.ar      1 <0>        -0.1139
     18 C11         2.7504   -4.1493    0.9621 C.ar      1 <0>        -0.0907
     19 C12         3.6434   -4.2932    2.0390 C.ar      1 <0>        -0.0587
     20 C13         3.7706   -5.5163    2.7188 C.ar      1 <0>        -0.1030
     21 C14         4.6444   -5.6231    3.7570 C.ar      1 <0>        -0.1209
     22 C15         5.4181   -4.5358    4.1589 C.ar      1 <0>        -0.1135
     23 C16         5.3222   -3.3356    3.5246 C.ar      1 <0>        -0.1072
     24 C17         4.4304   -3.1871    2.4476 C.ar      1 <0>        -0.0323
     25 C18         4.3100   -1.9651    1.7669 C.ar      1 <0>        -0.0929
     26 H2          1.0039    1.9031    0.0027 H         1 <0>         0.0669
     27 H3         -0.5459    1.8868   -0.8726 H         1 <0>         0.0541
     28 H4         -0.5289    1.8773    0.9072 H         1 <0>         0.0681
     29 H5          0.5293   -0.3651    0.8851 H         1 <0>         0.0988
     30 H6         -1.0205   -0.3814    0.0098 H         1 <0>         0.0786
     31 H7          1.0029   -2.4929   -6.9740 H         1 <0>         0.4288
     32 H8          2.6697   -2.6716   -7.0871 H         1 <0>         0.4172
     33 H9          1.9597   -2.8518   -0.5043 H         1 <0>         0.1203
     34 H10         2.1468   -4.9868    0.6447 H         1 <0>         0.1256
     35 H11         3.1775   -6.3677    2.4191 H         1 <0>         0.1250
     36 H12         4.7393   -6.5646    4.2774 H         1 <0>         0.1222
     37 H13         6.1036   -4.6472    4.9860 H         1 <0>         0.1233
     38 H14         5.9277   -2.5014    3.8469 H         1 <0>         0.1280
     39 H15         4.9064   -1.1153    2.0645 H         1 <0>         0.1323
     40 H16         4.0413   -2.1585   -5.2656 H         1 <0>         0.4161
@<TRIPOS>BOND
     1    1    2 1
     2    1   26 1
     3    1   27 1
     4    1   28 1
     5    2    3 1
     6    2   29 1
     7    2   30 1
     8    3    7 1
     9    3    4 2
    10    4    5 1
    11    4   15 1
    12    5   12 1
    13    5    6 2
    14    6    7 1
    15    6    9 1
    16    7    8 1
    17    9   10 2
    18   10   11 1
    19   10   14 1
    20   11   12 am
    21   11   40 1
    22   12   13 2
    23   14   31 1
    24   14   32 1
    25   15   16 1
    26   16   25 ar
    27   16   17 ar
    28   17   18 ar
    29   17   33 1
    30   18   19 ar
    31   18   34 1
    32   19   24 ar
    33   19   20 ar
    34   20   21 ar
    35   20   35 1
    36   21   22 ar
    37   21   36 1
    38   22   23 ar
    39   22   37 1
    40   23   24 ar
    41   23   38 1
    42   24   25 ar
    43   25   39 1
@<TRIPOS>MOLECULE
CHEMBL202337__1
   40    43     0     0     0
SMALL
USER_CHARGES

@<TRIPOS>ATOM
      1 C1         -0.0187    1.5258    0.0104 C.3       1 <0>        -0.1486
      2 C2          0.0021   -0.0041    0.0020 C.3       1 <0>        -0.0609
      3 C3          0.7074   -0.4901   -1.2379 C.2       1 <0>         0.1058
      4 C4          2.0421   -0.6466   -1.3677 C.2       1 <0>        -0.1453
      5 C5          2.2714   -1.1341   -2.7279 C.2       1 <0>        -0.2329
      6 C6          1.0188   -1.2358   -3.3280 C.2       1 <0>         0.2900
      7 N1          0.0923   -0.8506   -2.4161 N.pl3     1 <0>        -0.5468
      8 H1         -0.8649   -0.8295   -2.5718 H         1 <0>         0.4203
      9 N2          0.9526   -1.6776   -4.6285 N.pl3     1 <0>        -0.6305
     10 C7          2.0834   -2.0055   -5.3054 C.2       1 <0>         0.6780
     11 N3          3.2827   -1.9220   -4.7711 N.2       1 <0>        -0.6303
     12 C8          3.4536   -1.5009   -3.5068 C.2       1 <0>         0.5618
     13 O1          4.5705   -1.4268   -3.0190 O.2       1 <0>        -0.4851
     14 N4          1.9705   -2.4416   -6.5981 N.pl3     1 <0>        -0.8190
     15 S1          3.2661   -0.3268   -0.1412 S.3       1 <0>         0.0633
     16 C9          3.4273   -1.8609    0.7103 C.ar      1 <0>        -0.0922
     17 C10         2.6510   -2.9584    0.3153 C.ar      1 <0>        -0.1132
     18 C11         2.7547   -4.1528    0.9544 C.ar      1 <0>        -0.0903
     19 C12         3.6513   -4.2985    2.0280 C.ar      1 <0>        -0.0581
     20 C13         3.7794   -5.5223    2.7065 C.ar      1 <0>        -0.1032
     21 C14         4.6567   -5.6309    3.7416 C.ar      1 <0>        -0.1205
     22 C15         5.4329   -4.5447    4.1418 C.ar      1 <0>        -0.1134
     23 C16         5.3362   -3.3440    3.5086 C.ar      1 <0>        -0.1065
     24 C17         4.4412   -3.1938    2.4346 C.ar      1 <0>        -0.0322
     25 C18         4.3199   -1.9711    1.7551 C.ar      1 <0>        -0.0909
     26 H2          1.0039    1.9031    0.0027 H         1 <0>         0.0684
     27 H3         -0.5459    1.8868   -0.8726 H         1 <0>         0.0529
     28 H4         -0.5289    1.8773    0.9072 H         1 <0>         0.0690
     29 H5          0.5293   -0.3651    0.8851 H         1 <0>         0.1010
     30 H6         -1.0205   -0.3814    0.0098 H         1 <0>         0.0778
     31 H7          1.0960   -2.5112   -7.0119 H         1 <0>         0.4114
     32 H8          2.7651   -2.6812   -7.1003 H         1 <0>         0.4346
     33 H9          1.9605   -2.8533   -0.5084 H         1 <0>         0.1185
     34 H10         2.1490   -4.9893    0.6385 H         1 <0>         0.1254
     35 H11         3.1842   -6.3727    2.4084 H         1 <0>         0.1249
     36 H12         4.7525   -6.5730    4.2608 H         1 <0>         0.1223
     37 H13         6.1208   -4.6575    4.9666 H         1 <0>         0.1234
     38 H14         5.9436   -2.5106    3.8296 H         1 <0>         0.1283
     39 H15         4.9182   -1.1222    2.0515 H         1 <0>         0.1330
     40 H16         0.0905   -1.7561   -5.0662 H         1 <0>         0.4098
@<TRIPOS>BOND
     1    1    2 1
     2    1   26 1
     3    1   27 1
     4    1   28 1
     5    2    3 1
     6    2   29 1
     7    2   30 1
     8    3    7 1
     9    3    4 2
    10    4    5 1
    11    4   15 1
    12    5   12 1
    13    5    6 2
    14    6    7 1
    15    6    9 1
    16    7    8 1
    17    9   10 1
    18    9   40 1
    19   10   11 2
    20   10   14 1
    21   11   12 1
    22   12   13 2
    23   14   31 1
    24   14   32 1
    25   15   16 1
    26   16   25 ar
    27   16   17 ar
    28   17   18 ar
    29   17   33 1
    30   18   19 ar
    31   18   34 1
    32   19   24 ar
    33   19   20 ar
    34   20   21 ar
    35   20   35 1
    36   21   22 ar
    37   21   36 1
    38   22   23 ar
    39   22   37 1
    40   23   24 ar
    41   23   38 1
    42   24   25 ar
    43   25   39 1
@<TRIPOS>MOLECULE
CHEMBL161641
   76    79     0     0     0
SMALL
USER_CHARGES

@<TRIPOS>ATOM
      1 C1         -0.1059    1.2289    0.7635 C.3       1 <0>        -0.1251
      2 C2         -0.6218    1.5769   -0.6089 C.ar      1 <0>        -0.0312
      3 C3          0.2699    1.8714   -1.6161 C.ar      1 <0>        -0.1085
      4 C4         -0.2059    2.1937   -2.8884 C.ar      1 <0>         0.1413
      5 C5         -1.5990    2.2123   -3.1223 C.ar      1 <0>        -0.1927
      6 C6         -2.4842    1.9113   -2.0897 C.ar      1 <0>        -0.0167
      7 C7         -1.9902    1.5911   -0.8437 C.ar      1 <0>        -0.1173
      8 C8         -2.9436    1.2587    0.2750 C.3       1 <0>         0.1640
      9 N1         -4.3222    1.4088   -0.1974 N.pl3     1 <0>        -0.6280
     10 C9         -5.0132    0.2733   -0.8133 C.3       1 <0>         0.0889
     11 C10        -4.9748    2.6291   -0.0612 C.ar      1 <0>         0.2450
     12 C11        -4.2798    3.7393    0.4130 C.ar      1 <0>        -0.2093
     13 C12        -4.9133    4.9410    0.5496 C.ar      1 <0>        -0.0113
     14 C13        -6.2652    5.0630    0.2129 C.ar      1 <0>        -0.1962
     15 C14        -6.9672    3.9490   -0.2647 C.ar      1 <0>         0.2018
     16 C15        -6.3181    2.7392   -0.4043 C.ar      1 <0>        -0.2425
     17 F1         -8.2733    4.0596   -0.5918 F         1 <0>        -0.1126
     18 C16        -6.9494    6.3599    0.3607 C.2       1 <0>         0.5516
     19 O1         -8.1250    6.4640    0.0675 O.2       1 <0>        -0.5454
     20 N2         -6.2722    7.4305    0.8209 N.am      1 <0>        -0.6766
     21 C17        -6.9523    8.7197    0.9678 C.3       1 <0>         0.0738
     22 C18        -5.9248    9.8504    0.8878 C.3       1 <0>        -0.0808
     23 C19        -5.3039    9.8774   -0.5103 C.3       1 <0>        -0.1766
     24 C20        -4.2918   10.9911   -0.5891 C.2       1 <0>         0.4913
     25 O2         -4.0861   11.6978    0.3828 O.co2     1 <0>        -0.6951
     26 O3         -3.6786   11.1855   -1.6249 O.co2     1 <0>        -0.7233
     27 C21        -7.6514    8.7696    2.3019 C.2       1 <0>         0.4967
     28 O4         -7.4419    7.9024    3.1328 O.co2     1 <0>        -0.6980
     29 O5         -8.4266    9.6774    2.5503 O.co2     1 <0>        -0.6994
     30 C22        -2.0674    2.5561   -4.4732 C.2       1 <0>         0.5498
     31 N3         -1.1275    2.8331   -5.4068 N.am      1 <0>        -0.6534
     32 C23         0.1935    2.7903   -5.0923 C.2       1 <0>         0.3808
     33 N4          0.6367    2.4907   -3.9093 N.2       1 <0>        -0.4984
     34 C24         1.1960    3.1075   -6.1719 C.3       1 <0>         0.1048
     35 N5          2.5550    3.0040   -5.6240 N.3       1 <0>        -0.5156
     36 C25         2.7962    4.0439   -4.6138 C.3       1 <0>         0.0174
     37 C26         4.1979    3.8650   -4.0266 C.3       1 <0>         0.0012
     38 N6          5.1950    3.9611   -5.1009 N.4       1 <0>        -0.3901
     39 C27         4.9561    2.9010   -6.0892 C.3       1 <0>         0.0012
     40 C28         3.5607    3.0719   -6.6936 C.3       1 <0>         0.0238
     41 C29         6.5415    3.8073   -4.5340 C.3       1 <0>        -0.0447
     42 O6         -3.2543    2.5899   -4.7414 O.2       1 <0>        -0.4894
     43 H1         -0.0637    0.1451    0.8718 H         1 <0>         0.0795
     44 H2          0.8928    1.6460    0.8928 H         1 <0>         0.0721
     45 H3         -0.7735    1.6438    1.5187 H         1 <0>         0.0791
     46 H4          1.3322    1.8536   -1.4226 H         1 <0>         0.1359
     47 H5         -3.5497    1.9247   -2.2654 H         1 <0>         0.1450
     48 H6         -2.7802    0.2306    0.5982 H         1 <0>         0.0933
     49 H7         -2.7708    1.9346    1.1125 H         1 <0>         0.0996
     50 H8         -5.5323   -0.2973   -0.0431 H         1 <0>         0.0542
     51 H9         -5.7354    0.6397   -1.5428 H         1 <0>         0.0731
     52 H10        -4.2861   -0.3675   -1.3121 H         1 <0>         0.0646
     53 H11        -3.2357    3.6490    0.6740 H         1 <0>         0.1268
     54 H12        -4.3698    5.7984    0.9184 H         1 <0>         0.1371
     55 H13        -6.8535    1.8780   -0.7759 H         1 <0>         0.1370
     56 H14        -5.3345    7.3474    1.0548 H         1 <0>         0.3869
     57 H15        -7.6848    8.8371    0.1691 H         1 <0>         0.0782
     58 H16        -6.4166   10.8029    1.0853 H         1 <0>         0.0777
     59 H17        -5.1433    9.6843    1.6292 H         1 <0>         0.0559
     60 H18        -4.8121    8.9249   -0.7079 H         1 <0>         0.0485
     61 H19        -6.0854   10.0434   -1.2518 H         1 <0>         0.0529
     62 H20         1.0807    2.4007   -6.9937 H         1 <0>         0.1196
     63 H21         1.0278    4.1204   -6.5377 H         1 <0>         0.0822
     64 H22         2.7193    5.0270   -5.0784 H         1 <0>         0.0576
     65 H23         2.0552    3.9578   -3.8191 H         1 <0>         0.1476
     66 H24         4.3843    4.6440   -3.2872 H         1 <0>         0.1359
     67 H25         4.2702    2.8873   -3.5502 H         1 <0>         0.1398
     68 H26         5.7046    2.9653   -6.8790 H         1 <0>         0.1337
     69 H27         5.0245    1.9282   -5.6022 H         1 <0>         0.1377
     70 H28         3.3775    2.2767   -7.4162 H         1 <0>         0.1236
     71 H29         3.4964    4.0390   -7.1924 H         1 <0>         0.0622
     72 H30         6.6226    2.8346   -4.0489 H         1 <0>         0.1220
     73 H31         7.2816    3.8786   -5.3311 H         1 <0>         0.1212
     74 H32         6.7195    4.5946   -3.8015 H         1 <0>         0.1240
     75 H33        -1.3995    3.0639   -6.3088 H         1 <0>         0.4180
     76 H34         5.1202    4.8618   -5.5493 H         1 <0>         0.4223
@<TRIPOS>BOND
     1    1   43 1
     2    1   44 1
     3    1   45 1
     4    1    2 1
     5    2    7 ar
     6    2    3 ar
     7    3   46 1
     8    3    4 ar
     9    4    5 ar
    10    4   33 1
    11    5   30 1
    12    5    6 ar
    13    6   47 1
    14    6    7 ar
    15    7    8 1
    16    8    9 1
    17    8   48 1
    18    8   49 1
    19    9   10 1
    20    9   11 1
    21   10   50 1
    22   10   51 1
    23   10   52 1
    24   11   16 ar
    25   11   12 ar
    26   12   13 ar
    27   12   53 1
    28   13   14 ar
    29   13   54 1
    30   14   15 ar
    31   14   18 1
    32   15   16 ar
    33   15   17 1
    34   16   55 1
    35   18   19 2
    36   18   20 am
    37   20   21 1
    38   20   56 1
    39   21   22 1
    40   21   27 1
    41   21   57 1
    42   22   23 1
    43   22   58 1
    44   22   59 1
    45   23   24 1
    46   23   60 1
    47   23   61 1
    48   24   25 2
    49   24   26 1
    50   27   28 2
    51   27   29 1
    52   30   42 2
    53   30   31 am
    54   31   32 1
    55   31   75 1
    56   32   33 2
    57   32   34 1
    58   34   35 1
    59   34   62 1
    60   34   63 1
    61   35   40 1
    62   35   36 1
    63   36   37 1
    64   36   64 1
    65   36   65 1
    66   37   38 1
    67   37   66 1
    68   37   67 1
    69   38   39 1
    70   38   41 1
    71   38   76 1
    72   39   40 1
    73   39   68 1
    74   39   69 1
    75   40   70 1
    76   40   71 1
    77   41   72 1
    78   41   73 1
    79   41   74 1
@<TRIPOS>MOLECULE
CHEMBL161641__1
   76    79     0     0     0
SMALL
USER_CHARGES

@<TRIPOS>ATOM
      1 C1         -0.1059    1.2289    0.7635 C.3       1 <0>        -0.1287
      2 C2         -0.6218    1.5769   -0.6089 C.ar      1 <0>        -0.0286
      3 C3          0.2699    1.8714   -1.6161 C.ar      1 <0>        -0.0991
      4 C4         -0.2059    2.1937   -2.8884 C.ar      1 <0>         0.1315
      5 C5         -1.5990    2.2123   -3.1223 C.ar      1 <0>        -0.1789
      6 C6         -2.4842    1.9113   -2.0897 C.ar      1 <0>        -0.0187
      7 C7         -1.9902    1.5911   -0.8437 C.ar      1 <0>        -0.1012
      8 C8         -2.9436    1.2587    0.2750 C.3       1 <0>         0.1605
      9 N1         -4.3222    1.4088   -0.1974 N.pl3     1 <0>        -0.6292
     10 C9         -5.0132    0.2733   -0.8133 C.3       1 <0>         0.0883
     11 C10        -4.9748    2.6291   -0.0612 C.ar      1 <0>         0.2418
     12 C11        -4.2798    3.7393    0.4130 C.ar      1 <0>        -0.2097
     13 C12        -4.9133    4.9410    0.5496 C.ar      1 <0>        -0.0112
     14 C13        -6.2652    5.0630    0.2129 C.ar      1 <0>        -0.1935
     15 C14        -6.9672    3.9490   -0.2647 C.ar      1 <0>         0.2019
     16 C15        -6.3181    2.7392   -0.4043 C.ar      1 <0>        -0.2412
     17 F1         -8.2733    4.0596   -0.5918 F         1 <0>        -0.1117
     18 C16        -6.9494    6.3599    0.3607 C.2       1 <0>         0.5504
     19 O1         -8.1250    6.4640    0.0675 O.2       1 <0>        -0.5445
     20 N2         -6.2722    7.4305    0.8209 N.am      1 <0>        -0.6757
     21 C17        -6.9523    8.7197    0.9678 C.3       1 <0>         0.0736
     22 C18        -5.9248    9.8504    0.8878 C.3       1 <0>        -0.0812
     23 C19        -5.3039    9.8774   -0.5103 C.3       1 <0>        -0.1763
     24 C20        -4.2918   10.9911   -0.5891 C.2       1 <0>         0.4909
     25 O2         -4.0861   11.6978    0.3828 O.co2     1 <0>        -0.6944
     26 O3         -3.6786   11.1855   -1.6249 O.co2     1 <0>        -0.7230
     27 C21        -7.6514    8.7696    2.3019 C.2       1 <0>         0.4966
     28 O4         -7.4419    7.9024    3.1328 O.co2     1 <0>        -0.6982
     29 O5         -8.4266    9.6774    2.5503 O.co2     1 <0>        -0.6986
     30 C22        -2.0674    2.5561   -4.4732 C.2       1 <0>         0.5517
     31 N3         -1.1275    2.8331   -5.4068 N.am      1 <0>        -0.6433
     32 C23         0.1935    2.7903   -5.0923 C.2       1 <0>         0.3526
     33 N4          0.6367    2.4907   -3.9093 N.2       1 <0>        -0.5245
     34 C24         1.1960    3.1075   -6.1719 C.3       1 <0>         0.0517
     35 N5          2.5550    3.0040   -5.6240 N.4       1 <0>        -0.3710
     36 C25         2.7483    4.0359   -4.5967 C.3       1 <0>        -0.0142
     37 C26         4.1575    3.9165   -4.0123 C.3       1 <0>         0.0314
     38 N6          5.1461    4.0799   -5.0875 N.3       1 <0>        -0.5446
     39 C27         4.9492    3.0688   -6.1359 C.3       1 <0>         0.0276
     40 C28         3.5334    3.1952   -6.7027 C.3       1 <0>        -0.0045
     41 C29         6.5148    4.0280   -4.5566 C.3       1 <0>         0.0208
     42 O6         -3.2543    2.5899   -4.7414 O.2       1 <0>        -0.4717
     43 H1         -0.0637    0.1451    0.8718 H         1 <0>         0.0828
     44 H2          0.8928    1.6460    0.8928 H         1 <0>         0.0756
     45 H3         -0.7735    1.6438    1.5187 H         1 <0>         0.0824
     46 H4          1.3322    1.8536   -1.4226 H         1 <0>         0.1410
     47 H5         -3.5497    1.9247   -2.2654 H         1 <0>         0.1501
     48 H6         -2.7802    0.2306    0.5982 H         1 <0>         0.0971
     49 H7         -2.7708    1.9346    1.1125 H         1 <0>         0.1035
     50 H8         -5.5323   -0.2973   -0.0431 H         1 <0>         0.0555
     51 H9         -5.7354    0.6397   -1.5428 H         1 <0>         0.0739
     52 H10        -4.2861   -0.3675   -1.3121 H         1 <0>         0.0640
     53 H11        -3.2357    3.6490    0.6740 H         1 <0>         0.1263
     54 H12        -4.3698    5.7984    0.9184 H         1 <0>         0.1380
     55 H13        -6.8535    1.8780   -0.7759 H         1 <0>         0.1374
     56 H14        -5.3345    7.3474    1.0548 H         1 <0>         0.3869
     57 H15        -7.6848    8.8371    0.1691 H         1 <0>         0.0785
     58 H16        -6.4166   10.8029    1.0853 H         1 <0>         0.0782
     59 H17        -5.1433    9.6843    1.6292 H         1 <0>         0.0561
     60 H18        -4.8121    8.9249   -0.7079 H         1 <0>         0.0479
     61 H19        -6.0854   10.0434   -1.2518 H         1 <0>         0.0528
     62 H20         1.0807    2.4007   -6.9937 H         1 <0>         0.1609
     63 H21         1.0278    4.1204   -6.5377 H         1 <0>         0.1631
     64 H22         2.6229    5.0219   -5.0441 H         1 <0>         0.1345
     65 H23         2.0133    3.9008   -3.8032 H         1 <0>         0.1585
     66 H24         4.3064    4.6915   -3.2605 H         1 <0>         0.1239
     67 H25         4.2788    2.9355   -3.5528 H         1 <0>         0.0618
     68 H26         5.6755    3.2254   -6.9333 H         1 <0>         0.1227
     69 H27         5.0835    2.0739   -5.7114 H         1 <0>         0.0596
     70 H28         3.3804    2.4369   -7.4706 H         1 <0>         0.1363
     71 H29         3.4039    4.1855   -7.1393 H         1 <0>         0.1411
     72 H30         6.6806    3.0655   -4.0728 H         1 <0>         0.0378
     73 H31         7.2262    4.1516   -5.3732 H         1 <0>         0.0810
     74 H32         6.6532    4.8286   -3.8299 H         1 <0>         0.0843
     75 H33        -1.3995    3.0639   -6.3088 H         1 <0>         0.4235
     76 H34         2.6828    2.0918   -5.2121 H         1 <0>         0.4291
@<TRIPOS>BOND
     1    1   43 1
     2    1   44 1
     3    1   45 1
     4    1    2 1
     5    2    7 ar
     6    2    3 ar
     7    3   46 1
     8    3    4 ar
     9    4    5 ar
    10    4   33 1
    11    5   30 1
    12    5    6 ar
    13    6   47 1
    14    6    7 ar
    15    7    8 1
    16    8    9 1
    17    8   48 1
    18    8   49 1
    19    9   10 1
    20    9   11 1
    21   10   50 1
    22   10   51 1
    23   10   52 1
    24   11   16 ar
    25   11   12 ar
    26   12   13 ar
    27   12   53 1
    28   13   14 ar
    29   13   54 1
    30   14   15 ar
    31   14   18 1
    32   15   16 ar
    33   15   17 1
    34   16   55 1
    35   18   19 2
    36   18   20 am
    37   20   21 1
    38   20   56 1
    39   21   22 1
    40   21   27 1
    41   21   57 1
    42   22   23 1
    43   22   58 1
    44   22   59 1
    45   23   24 1
    46   23   60 1
    47   23   61 1
    48   24   25 2
    49   24   26 1
    50   27   28 2
    51   27   29 1
    52   30   42 2
    53   30   31 am
    54   31   32 1
    55   31   75 1
    56   32   33 2
    57   32   34 1
    58   34   35 1
    59   34   62 1
    60   34   63 1
    61   35   40 1
    62   35   36 1
    63   35   76 1
    64   36   37 1
    65   36   64 1
    66   36   65 1
    67   37   38 1
    68   37   66 1
    69   37   67 1
    70   38   39 1
    71   38   41 1
    72   39   40 1
    73   39   68 1
    74   39   69 1
    75   40   70 1
    76   40   71 1
    77   41   72 1
    78   41   73 1
    79   41   74 1
@<TRIPOS>MOLECULE
CHEMBL161641__2
   76    79     0     0     0
SMALL
USER_CHARGES

@<TRIPOS>ATOM
      1 C1         -0.1059    1.2289    0.7635 C.3       1 <0>        -0.1254
      2 C2         -0.6218    1.5769   -0.6089 C.ar      1 <0>        -0.0309
      3 C3          0.2699    1.8714   -1.6161 C.ar      1 <0>        -0.1086
      4 C4         -0.2059    2.1937   -2.8884 C.ar      1 <0>         0.1407
      5 C5         -1.5990    2.2123   -3.1223 C.ar      1 <0>        -0.1924
      6 C6         -2.4842    1.9113   -2.0897 C.ar      1 <0>        -0.0166
      7 C7         -1.9902    1.5911   -0.8437 C.ar      1 <0>        -0.1171
      8 C8         -2.9436    1.2587    0.2750 C.3       1 <0>         0.1636
      9 N1         -4.3222    1.4088   -0.1974 N.pl3     1 <0>        -0.6278
     10 C9         -5.0132    0.2733   -0.8133 C.3       1 <0>         0.0887
     11 C10        -4.9748    2.6291   -0.0612 C.ar      1 <0>         0.2455
     12 C11        -4.2798    3.7393    0.4130 C.ar      1 <0>        -0.2092
     13 C12        -4.9133    4.9410    0.5496 C.ar      1 <0>        -0.0109
     14 C13        -6.2652    5.0630    0.2129 C.ar      1 <0>        -0.1980
     15 C14        -6.9672    3.9490   -0.2647 C.ar      1 <0>         0.2021
     16 C15        -6.3181    2.7392   -0.4043 C.ar      1 <0>        -0.2426
     17 F1         -8.2733    4.0596   -0.5918 F         1 <0>        -0.1124
     18 C16        -6.9494    6.3599    0.3607 C.2       1 <0>         0.5469
     19 O1         -8.1250    6.4640    0.0675 O.2       1 <0>        -0.5432
     20 N2         -6.2722    7.4305    0.8209 N.am      1 <0>        -0.6771
     21 C17        -6.9523    8.7197    0.9678 C.3       1 <0>         0.0746
     22 C18        -6.2356    9.5563    2.0295 C.3       1 <0>        -0.0814
     23 C19        -6.3663    8.8722    3.3917 C.3       1 <0>        -0.1772
     24 C20        -5.6603    9.6963    4.4375 C.2       1 <0>         0.4909
     25 O2         -5.1043   10.7346    4.1224 O.co2     1 <0>        -0.6981
     26 O3         -5.6453    9.3248    5.5986 O.co2     1 <0>        -0.7186
     27 C21        -6.9297    9.4525   -0.3489 C.2       1 <0>         0.4991
     28 O4         -7.8336   10.2189   -0.6356 O.co2     1 <0>        -0.6990
     29 O5         -6.0076    9.2789   -1.1274 O.co2     1 <0>        -0.7026
     30 C22        -2.0674    2.5561   -4.4732 C.2       1 <0>         0.5492
     31 N3         -1.1275    2.8331   -5.4068 N.am      1 <0>        -0.6536
     32 C23         0.1935    2.7903   -5.0923 C.2       1 <0>         0.3801
     33 N4          0.6367    2.4907   -3.9093 N.2       1 <0>        -0.4985
     34 C24         1.1960    3.1075   -6.1719 C.3       1 <0>         0.1052
     35 N5          2.5550    3.0040   -5.6240 N.3       1 <0>        -0.5155
     36 C25         2.7962    4.0439   -4.6138 C.3       1 <0>         0.0179
     37 C26         4.1979    3.8650   -4.0266 C.3       1 <0>         0.0011
     38 N6          5.1950    3.9611   -5.1009 N.4       1 <0>        -0.3900
     39 C27         4.9561    2.9010   -6.0892 C.3       1 <0>         0.0011
     40 C28         3.5607    3.0719   -6.6936 C.3       1 <0>         0.0239
     41 C29         6.5415    3.8073   -4.5340 C.3       1 <0>        -0.0448
     42 O6         -3.2543    2.5899   -4.7414 O.2       1 <0>        -0.4880
     43 H1         -0.0637    0.1451    0.8718 H         1 <0>         0.0797
     44 H2          0.8928    1.6460    0.8928 H         1 <0>         0.0721
     45 H3         -0.7735    1.6438    1.5187 H         1 <0>         0.0794
     46 H4          1.3322    1.8536   -1.4226 H         1 <0>         0.1358
     47 H5         -3.5497    1.9247   -2.2654 H         1 <0>         0.1451
     48 H6         -2.7802    0.2306    0.5982 H         1 <0>         0.0937
     49 H7         -2.7708    1.9346    1.1125 H         1 <0>         0.1000
     50 H8         -5.5323   -0.2973   -0.0431 H         1 <0>         0.0544
     51 H9         -5.7354    0.6397   -1.5428 H         1 <0>         0.0733
     52 H10        -4.2861   -0.3675   -1.3121 H         1 <0>         0.0647
     53 H11        -3.2357    3.6490    0.6740 H         1 <0>         0.1271
     54 H12        -4.3698    5.7984    0.9184 H         1 <0>         0.1378
     55 H13        -6.8535    1.8780   -0.7759 H         1 <0>         0.1373
     56 H14        -5.3345    7.3474    1.0548 H         1 <0>         0.3884
     57 H15        -7.9853    8.5528    1.2730 H         1 <0>         0.0785
     58 H16        -5.1813    9.6484    1.7687 H         1 <0>         0.0586
     59 H17        -6.6863   10.5477    2.0760 H         1 <0>         0.0729
     60 H18        -7.4206    8.7802    3.6524 H         1 <0>         0.0536
     61 H19        -5.9156    7.8808    3.3452 H         1 <0>         0.0503
     62 H20         1.0807    2.4007   -6.9937 H         1 <0>         0.1196
     63 H21         1.0278    4.1204   -6.5377 H         1 <0>         0.0817
     64 H22         2.7193    5.0270   -5.0784 H         1 <0>         0.0568
     65 H23         2.0552    3.9578   -3.8191 H         1 <0>         0.1476
     66 H24         4.3843    4.6440   -3.2872 H         1 <0>         0.1357
     67 H25         4.2702    2.8873   -3.5502 H         1 <0>         0.1401
     68 H26         5.7046    2.9653   -6.8790 H         1 <0>         0.1338
     69 H27         5.0245    1.9282   -5.6022 H         1 <0>         0.1379
     70 H28         3.3775    2.2767   -7.4162 H         1 <0>         0.1237
     71 H29         3.4964    4.0390   -7.1924 H         1 <0>         0.0619
     72 H30         6.6226    2.8346   -4.0489 H         1 <0>         0.1222
     73 H31         7.2816    3.8786   -5.3311 H         1 <0>         0.1213
     74 H32         6.7195    4.5946   -3.8015 H         1 <0>         0.1239
     75 H33        -1.3995    3.0639   -6.3088 H         1 <0>         0.4179
     76 H34         5.1202    4.8618   -5.5493 H         1 <0>         0.4219
@<TRIPOS>BOND
     1    1   43 1
     2    1   44 1
     3    1   45 1
     4    1    2 1
     5    2    7 ar
     6    2    3 ar
     7    3   46 1
     8    3    4 ar
     9    4    5 ar
    10    4   33 1
    11    5   30 1
    12    5    6 ar
    13    6   47 1
    14    6    7 ar
    15    7    8 1
    16    8    9 1
    17    8   48 1
    18    8   49 1
    19    9   10 1
    20    9   11 1
    21   10   50 1
    22   10   51 1
    23   10   52 1
    24   11   16 ar
    25   11   12 ar
    26   12   13 ar
    27   12   53 1
    28   13   14 ar
    29   13   54 1
    30   14   15 ar
    31   14   18 1
    32   15   16 ar
    33   15   17 1
    34   16   55 1
    35   18   19 2
    36   18   20 am
    37   20   21 1
    38   20   56 1
    39   21   22 1
    40   21   27 1
    41   21   57 1
    42   22   23 1
    43   22   58 1
    44   22   59 1
    45   23   24 1
    46   23   60 1
    47   23   61 1
    48   24   25 2
    49   24   26 1
    50   27   28 2
    51   27   29 1
    52   30   42 2
    53   30   31 am
    54   31   32 1
    55   31   75 1
    56   32   33 2
    57   32   34 1
    58   34   35 1
    59   34   62 1
    60   34   63 1
    61   35   40 1
    62   35   36 1
    63   36   37 1
    64   36   64 1
    65   36   65 1
    66   37   38 1
    67   37   66 1
    68   37   67 1
    69   38   39 1
    70   38   41 1
    71   38   76 1
    72   39   40 1
    73   39   68 1
    74   39   69 1
    75   40   70 1
    76   40   71 1
    77   41   72 1
    78   41   73 1
    79   41   74 1
@<TRIPOS>MOLECULE
CHEMBL161641__3
   76    79     0     0     0
SMALL
USER_CHARGES

@<TRIPOS>ATOM
      1 C1         -0.1059    1.2289    0.7635 C.3       1 <0>        -0.1289
      2 C2         -0.6218    1.5769   -0.6089 C.ar      1 <0>        -0.0284
      3 C3          0.2699    1.8714   -1.6161 C.ar      1 <0>        -0.0992
      4 C4         -0.2059    2.1937   -2.8884 C.ar      1 <0>         0.1308
      5 C5         -1.5990    2.2123   -3.1223 C.ar      1 <0>        -0.1786
      6 C6         -2.4842    1.9113   -2.0897 C.ar      1 <0>        -0.0187
      7 C7         -1.9902    1.5911   -0.8437 C.ar      1 <0>        -0.1009
      8 C8         -2.9436    1.2587    0.2750 C.3       1 <0>         0.1601
      9 N1         -4.3222    1.4088   -0.1974 N.pl3     1 <0>        -0.6291
     10 C9         -5.0132    0.2733   -0.8133 C.3       1 <0>         0.0881
     11 C10        -4.9748    2.6291   -0.0612 C.ar      1 <0>         0.2424
     12 C11        -4.2798    3.7393    0.4130 C.ar      1 <0>        -0.2096
     13 C12        -4.9133    4.9410    0.5496 C.ar      1 <0>        -0.0108
     14 C13        -6.2652    5.0630    0.2129 C.ar      1 <0>        -0.1954
     15 C14        -6.9672    3.9490   -0.2647 C.ar      1 <0>         0.2022
     16 C15        -6.3181    2.7392   -0.4043 C.ar      1 <0>        -0.2413
     17 F1         -8.2733    4.0596   -0.5918 F         1 <0>        -0.1115
     18 C16        -6.9494    6.3599    0.3607 C.2       1 <0>         0.5458
     19 O1         -8.1250    6.4640    0.0675 O.2       1 <0>        -0.5424
     20 N2         -6.2722    7.4305    0.8209 N.am      1 <0>        -0.6763
     21 C17        -6.9523    8.7197    0.9678 C.3       1 <0>         0.0744
     22 C18        -6.2356    9.5563    2.0295 C.3       1 <0>        -0.0817
     23 C19        -6.3663    8.8722    3.3917 C.3       1 <0>        -0.1771
     24 C20        -5.6603    9.6963    4.4375 C.2       1 <0>         0.4907
     25 O2         -5.1043   10.7346    4.1224 O.co2     1 <0>        -0.6976
     26 O3         -5.6453    9.3248    5.5986 O.co2     1 <0>        -0.7183
     27 C21        -6.9297    9.4525   -0.3489 C.2       1 <0>         0.4993
     28 O4         -7.8336   10.2189   -0.6356 O.co2     1 <0>        -0.6981
     29 O5         -6.0076    9.2789   -1.1274 O.co2     1 <0>        -0.7030
     30 C22        -2.0674    2.5561   -4.4732 C.2       1 <0>         0.5511
     31 N3         -1.1275    2.8331   -5.4068 N.am      1 <0>        -0.6435
     32 C23         0.1935    2.7903   -5.0923 C.2       1 <0>         0.3519
     33 N4          0.6367    2.4907   -3.9093 N.2       1 <0>        -0.5245
     34 C24         1.1960    3.1075   -6.1719 C.3       1 <0>         0.0519
     35 N5          2.5550    3.0040   -5.6240 N.4       1 <0>        -0.3711
     36 C25         2.7483    4.0359   -4.5967 C.3       1 <0>        -0.0138
     37 C26         4.1575    3.9165   -4.0123 C.3       1 <0>         0.0311
     38 N6          5.1461    4.0799   -5.0875 N.3       1 <0>        -0.5447
     39 C27         4.9492    3.0688   -6.1359 C.3       1 <0>         0.0274
     40 C28         3.5334    3.1952   -6.7027 C.3       1 <0>        -0.0044
     41 C29         6.5148    4.0280   -4.5566 C.3       1 <0>         0.0206
     42 O6         -3.2543    2.5899   -4.7414 O.2       1 <0>        -0.4703
     43 H1         -0.0637    0.1451    0.8718 H         1 <0>         0.0830
     44 H2          0.8928    1.6460    0.8928 H         1 <0>         0.0757
     45 H3         -0.7735    1.6438    1.5187 H         1 <0>         0.0827
     46 H4          1.3322    1.8536   -1.4226 H         1 <0>         0.1409
     47 H5         -3.5497    1.9247   -2.2654 H         1 <0>         0.1501
     48 H6         -2.7802    0.2306    0.5982 H         1 <0>         0.0975
     49 H7         -2.7708    1.9346    1.1125 H         1 <0>         0.1039
     50 H8         -5.5323   -0.2973   -0.0431 H         1 <0>         0.0557
     51 H9         -5.7354    0.6397   -1.5428 H         1 <0>         0.0740
     52 H10        -4.2861   -0.3675   -1.3121 H         1 <0>         0.0641
     53 H11        -3.2357    3.6490    0.6740 H         1 <0>         0.1266
     54 H12        -4.3698    5.7984    0.9184 H         1 <0>         0.1387
     55 H13        -6.8535    1.8780   -0.7759 H         1 <0>         0.1377
     56 H14        -5.3345    7.3474    1.0548 H         1 <0>         0.3884
     57 H15        -7.9853    8.5528    1.2730 H         1 <0>         0.0788
     58 H16        -5.1813    9.6484    1.7687 H         1 <0>         0.0589
     59 H17        -6.6863   10.5477    2.0760 H         1 <0>         0.0734
     60 H18        -7.4206    8.7802    3.6524 H         1 <0>         0.0536
     61 H19        -5.9156    7.8808    3.3452 H         1 <0>         0.0499
     62 H20         1.0807    2.4007   -6.9937 H         1 <0>         0.1609
     63 H21         1.0278    4.1204   -6.5377 H         1 <0>         0.1626
     64 H22         2.6229    5.0219   -5.0441 H         1 <0>         0.1337
     65 H23         2.0133    3.9008   -3.8032 H         1 <0>         0.1585
     66 H24         4.3064    4.6915   -3.2605 H         1 <0>         0.1236
     67 H25         4.2788    2.9355   -3.5528 H         1 <0>         0.0621
     68 H26         5.6755    3.2254   -6.9333 H         1 <0>         0.1228
     69 H27         5.0835    2.0739   -5.7114 H         1 <0>         0.0599
     70 H28         3.3804    2.4369   -7.4706 H         1 <0>         0.1364
     71 H29         3.4039    4.1855   -7.1393 H         1 <0>         0.1408
     72 H30         6.6806    3.0655   -4.0728 H         1 <0>         0.0381
     73 H31         7.2262    4.1516   -5.3732 H         1 <0>         0.0810
     74 H32         6.6532    4.8286   -3.8299 H         1 <0>         0.0842
     75 H33        -1.3995    3.0639   -6.3088 H         1 <0>         0.4234
     76 H34         2.6828    2.0918   -5.2121 H         1 <0>         0.4294
@<TRIPOS>BOND
     1    1   43 1
     2    1   44 1
     3    1   45 1
     4    1    2 1
     5    2    7 ar
     6    2    3 ar
     7    3   46 1
     8    3    4 ar
     9    4    5 ar
    10    4   33 1
    11    5   30 1
    12    5    6 ar
    13    6   47 1
    14    6    7 ar
    15    7    8 1
    16    8    9 1
    17    8   48 1
    18    8   49 1
    19    9   10 1
    20    9   11 1
    21   10   50 1
    22   10   51 1
    23   10   52 1
    24   11   16 ar
    25   11   12 ar
    26   12   13 ar
    27   12   53 1
    28   13   14 ar
    29   13   54 1
    30   14   15 ar
    31   14   18 1
    32   15   16 ar
    33   15   17 1
    34   16   55 1
    35   18   19 2
    36   18   20 am
    37   20   21 1
    38   20   56 1
    39   21   22 1
    40   21   27 1
    41   21   57 1
    42   22   23 1
    43   22   58 1
    44   22   59 1
    45   23   24 1
    46   23   60 1
    47   23   61 1
    48   24   25 2
    49   24   26 1
    50   27   28 2
    51   27   29 1
    52   30   42 2
    53   30   31 am
    54   31   32 1
    55   31   75 1
    56   32   33 2
    57   32   34 1
    58   34   35 1
    59   34   62 1
    60   34   63 1
    61   35   40 1
    62   35   36 1
    63   35   76 1
    64   36   37 1
    65   36   64 1
    66   36   65 1
    67   37   38 1
    68   37   66 1
    69   37   67 1
    70   38   39 1
    71   38   41 1
    72   39   40 1
    73   39   68 1
    74   39   69 1
    75   40   70 1
    76   40   71 1
    77   41   72 1
    78   41   73 1
    79   41   74 1
@<TRIPOS>MOLECULE
CHEMBL434973
   53    55     0     0     0
SMALL
USER_CHARGES

@<TRIPOS>ATOM
      1 C1         -0.0187    1.5258    0.0104 C.3       1 <0>        -0.1758
      2 C2          0.0021   -0.0041    0.0020 C.3       1 <0>         0.1181
      3 N1         -1.3723   -0.5112    0.0124 N.pl3     1 <0>        -0.5517
      4 C3         -2.0716   -0.7579   -1.2510 C.3       1 <0>         0.1719
      5 C4         -1.8197   -2.1754   -1.6961 C.ar      1 <0>        -0.1347
      6 C5         -0.7272   -2.4591   -2.5053 C.ar      1 <0>        -0.0591
      7 C6         -0.4756   -3.7458   -2.9251 C.ar      1 <0>        -0.1186
      8 C7         -1.3282   -4.7801   -2.5337 C.ar      1 <0>         0.1592
      9 C8         -2.4383   -4.4880   -1.7108 C.ar      1 <0>        -0.1992
     10 C9         -2.6720   -3.1797   -1.2922 C.ar      1 <0>        -0.0079
     11 C10        -3.3169   -5.5994   -1.3168 C.2       1 <0>         0.5431
     12 N2         -3.0011   -6.8344   -1.7716 N.am      1 <0>        -0.6547
     13 C11        -1.9114   -7.0233   -2.5606 C.2       1 <0>         0.3980
     14 N3         -1.1181   -6.0620   -2.9245 N.2       1 <0>        -0.5288
     15 C12        -1.6076   -8.4201   -3.0376 C.3       1 <0>        -0.1104
     16 O1         -4.2899   -5.4159   -0.6089 O.2       1 <0>        -0.4858
     17 C13        -2.0081   -0.7563    1.2120 C.2       1 <0>         0.2506
     18 N4         -3.2334   -1.2165    1.4290 N.2       1 <0>        -0.3639
     19 N5         -3.6808   -1.3914    2.5979 N.2       1 <0>        -0.1815
     20 C14        -2.8983   -1.1049    3.6338 C.2       1 <0>        -0.0226
     21 S1         -1.4265   -0.5558    2.7815 S.3       1 <0>         0.1307
     22 C15        -3.1663   -1.2136    5.0738 C.2       1 <0>         0.6064
     23 O2         -2.3094   -0.8975    5.8777 O.2       1 <0>        -0.5440
     24 N6         -4.3614   -1.6636    5.5047 N.am      1 <0>        -0.6486
     25 C16        -4.6288   -1.7720    6.9411 C.3       1 <0>         0.0726
     26 H1         -3.7152   -2.0623    7.4598 H         1 <0>         0.0824
     27 C17        -5.7090   -2.8287    7.1804 C.3       1 <0>        -0.0813
     28 C18        -5.1803   -4.2023    6.7623 C.3       1 <0>        -0.1794
     29 C19        -6.2442   -5.2431    6.9981 C.2       1 <0>         0.4923
     30 O3         -7.3252   -4.9167    7.4579 O.co2     1 <0>        -0.6974
     31 O4         -6.0241   -6.4117    6.7290 O.co2     1 <0>        -0.7200
     32 C20        -5.1030   -0.4412    7.4656 C.2       1 <0>         0.4984
     33 O5         -5.3826    0.4558    6.6886 O.co2     1 <0>        -0.6950
     34 O6         -5.2070   -0.2615    8.6670 O.co2     1 <0>        -0.6979
     35 H2          1.0039    1.9031    0.0027 H         1 <0>         0.0725
     36 H3         -0.5459    1.8868   -0.8726 H         1 <0>         0.0620
     37 H4         -0.5289    1.8773    0.9072 H         1 <0>         0.0641
     38 H5          0.5123   -0.3556   -0.8948 H         1 <0>         0.0897
     39 H6          0.5293   -0.3651    0.8851 H         1 <0>         0.0800
     40 H7         -3.1417   -0.6062   -1.1097 H         1 <0>         0.0999
     41 H8         -1.7041   -0.0678   -2.0105 H         1 <0>         0.0944
     42 H9         -0.0669   -1.6602   -2.8092 H         1 <0>         0.1315
     43 H10         0.3770   -3.9542   -3.5545 H         1 <0>         0.1378
     44 H11        -3.5173   -2.9538   -0.6591 H         1 <0>         0.1501
     45 H12        -2.1114   -8.5973   -3.9878 H         1 <0>         0.0969
     46 H13        -0.5316   -8.5328   -3.1703 H         1 <0>         0.1023
     47 H14        -1.9600   -9.1407   -2.2996 H         1 <0>         0.0872
     48 H15        -3.5578   -7.5917   -1.5317 H         1 <0>         0.4193
     49 H16        -5.0446   -1.9156    4.8639 H         1 <0>         0.4025
     50 H17        -5.9714   -2.8470    8.2382 H         1 <0>         0.0800
     51 H18        -6.5928   -2.5848    6.5910 H         1 <0>         0.0597
     52 H19        -4.9179   -4.1840    5.7045 H         1 <0>         0.0522
     53 H20        -4.2964   -4.4462    7.3517 H         1 <0>         0.0527
@<TRIPOS>BOND
     1    1    2 1
     2    1   35 1
     3    1   36 1
     4    1   37 1
     5    2    3 1
     6    2   38 1
     7    2   39 1
     8    3    4 1
     9    3   17 1
    10    4   40 1
    11    4   41 1
    12    4    5 1
    13    5   10 ar
    14    5    6 ar
    15    6   42 1
    16    6    7 ar
    17    7   43 1
    18    7    8 ar
    19    8    9 ar
    20    8   14 1
    21    9   11 1
    22    9   10 ar
    23   10   44 1
    24   11   16 2
    25   11   12 am
    26   12   13 1
    27   12   48 1
    28   13   14 2
    29   13   15 1
    30   15   45 1
    31   15   46 1
    32   15   47 1
    33   17   21 1
    34   17   18 2
    35   18   19 1
    36   19   20 2
    37   20   21 1
    38   20   22 1
    39   22   23 2
    40   22   24 am
    41   24   25 1
    42   24   49 1
    43   25   26 1
    44   25   27 1
    45   25   32 1
    46   27   28 1
    47   27   50 1
    48   27   51 1
    49   28   29 1
    50   28   52 1
    51   28   53 1
    52   29   30 2
    53   29   31 1
    54   32   33 2
    55   32   34 1
@<TRIPOS>MOLECULE
CHEMBL74059
   58    61     0     0     0
SMALL
USER_CHARGES

@<TRIPOS>ATOM
      1 C1         -0.0127    1.0858    0.0080 C.3       1 <0>        -0.1119
      2 C2         -0.7416    1.5850   -1.2129 C.2       1 <0>         0.3867
      3 N1         -1.2185    0.7107   -2.0459 N.2       1 <0>        -0.5135
      4 C3         -1.8861    1.0857   -3.1657 C.ar      1 <0>         0.1524
      5 C4         -2.3988    0.1458   -4.0622 C.ar      1 <0>        -0.1045
      6 C5         -3.0695    0.5713   -5.1866 C.ar      1 <0>        -0.0524
      7 C6         -3.2433    1.9255   -5.4417 C.ar      1 <0>        -0.1192
      8 C7         -2.7463    2.8716   -4.5724 C.ar      1 <0>        -0.0295
      9 C8         -2.0647    2.4620   -3.4282 C.ar      1 <0>        -0.2012
     10 C9         -1.5124    3.4258   -2.4648 C.2       1 <0>         0.5527
     11 N2         -0.8708    2.9268   -1.3826 N.am      1 <0>        -0.6550
     12 O1         -1.6315    4.6256   -2.6317 O.2       1 <0>        -0.5155
     13 C10        -3.9816    2.3636   -6.6802 C.3       1 <0>         0.1650
     14 N3         -5.4103    2.4850   -6.3798 N.pl3     1 <0>        -0.6158
     15 C11        -5.9528    3.7596   -5.9028 C.3       1 <0>         0.2309
     16 C12        -6.3771    4.5737   -7.0534 C.1       1 <0>        -0.2093
     17 C13        -6.7155    5.2230   -7.9711 C.1       1 <0>        -0.1856
     18 C14        -6.2515    1.3906   -6.5475 C.ar      1 <0>         0.2251
     19 C15        -5.7347    0.1777   -6.9954 C.ar      1 <0>        -0.2069
     20 C16        -6.5621   -0.9086   -7.1628 C.ar      1 <0>        -0.0090
     21 C17        -7.9277   -0.7956   -6.8822 C.ar      1 <0>        -0.1775
     22 C18        -8.4395    0.4264   -6.4325 C.ar      1 <0>        -0.0338
     23 C19        -7.6102    1.5064   -6.2617 C.ar      1 <0>        -0.1746
     24 C20        -9.9189    0.2175   -6.2245 C.3       1 <0>         0.1394
     25 N4        -10.1894   -1.1794   -6.5830 N.am      1 <0>        -0.5796
     26 C21        -9.0378   -1.7596   -6.9617 C.2       1 <0>         0.5640
     27 O2         -8.9281   -2.9167   -7.3193 O.2       1 <0>        -0.5146
     28 C22       -11.4992   -1.8339   -6.5359 C.3       1 <0>         0.0972
     29 H1        -12.2491   -1.1217   -6.1916 H         1 <0>         0.0732
     30 C23       -11.8717   -2.3308   -7.9342 C.3       1 <0>        -0.0872
     31 C24       -12.0509   -1.1336   -8.8699 C.3       1 <0>        -0.1731
     32 C25       -12.4177   -1.6230  -10.2472 C.2       1 <0>         0.4916
     33 O3        -12.5258   -2.8185  -10.4606 O.co2     1 <0>        -0.6945
     34 O4        -12.6064   -0.8235  -11.1480 O.co2     1 <0>        -0.7239
     35 C26       -11.4429   -3.0025   -5.5860 C.2       1 <0>         0.4963
     36 O5        -10.4049   -3.2644   -5.0024 O.co2     1 <0>        -0.6824
     37 O6        -12.4354   -3.6861   -5.4010 O.co2     1 <0>        -0.7012
     38 H2          0.0021   -0.0041    0.0020 H         1 <0>         0.1049
     39 H3          1.0099    1.4631    0.0003 H         1 <0>         0.0905
     40 H4         -0.5229    1.4373    0.9048 H         1 <0>         0.0916
     41 H5         -2.2695   -0.9098   -3.8746 H         1 <0>         0.1428
     42 H6         -3.4651   -0.1569   -5.8791 H         1 <0>         0.1416
     43 H7         -2.8845    3.9233   -4.7760 H         1 <0>         0.1353
     44 H8         -0.4967    3.5327   -0.7240 H         1 <0>         0.4163
     45 H9         -3.5965    3.3283   -7.0106 H         1 <0>         0.0853
     46 H10        -3.8377    1.6254   -7.4692 H         1 <0>         0.0930
     47 H11        -6.8094    3.5705   -5.2559 H         1 <0>         0.1023
     48 H12        -5.1855    4.2941   -5.3427 H         1 <0>         0.0940
     49 H13        -7.0181    5.8037   -8.7919 H         1 <0>         0.2152
     50 H14        -4.6805    0.0896   -7.2127 H         1 <0>         0.1244
     51 H15        -6.1576   -1.8477   -7.5107 H         1 <0>         0.1293
     52 H16        -8.0109    2.4456   -5.9100 H         1 <0>         0.1233
     53 H17       -10.1791    0.3937   -5.1808 H         1 <0>         0.0849
     54 H18       -10.4864    0.8869   -6.8709 H         1 <0>         0.0869
     55 H19       -11.0780   -2.9737   -8.3147 H         1 <0>         0.0692
     56 H20       -12.8031   -2.8947   -7.8832 H         1 <0>         0.0727
     57 H21       -12.8446   -0.4907   -8.4894 H         1 <0>         0.0463
     58 H22       -11.1195   -0.5697   -8.9208 H         1 <0>         0.0474
@<TRIPOS>BOND
     1    1   38 1
     2    1   39 1
     3    1   40 1
     4    1    2 1
     5    2    3 2
     6    2   11 1
     7    3    4 1
     8    4    9 ar
     9    4    5 ar
    10    5    6 ar
    11    5   41 1
    12    6    7 ar
    13    6   42 1
    14    7    8 ar
    15    7   13 1
    16    8    9 ar
    17    8   43 1
    18    9   10 1
    19   10   12 2
    20   10   11 am
    21   11   44 1
    22   13   14 1
    23   13   45 1
    24   13   46 1
    25   14   15 1
    26   14   18 1
    27   15   16 1
    28   15   47 1
    29   15   48 1
    30   16   17 3
    31   17   49 1
    32   18   23 ar
    33   18   19 ar
    34   19   20 ar
    35   19   50 1
    36   20   21 ar
    37   20   51 1
    38   21   26 1
    39   21   22 ar
    40   22   23 ar
    41   22   24 1
    42   23   52 1
    43   24   25 1
    44   24   53 1
    45   24   54 1
    46   25   26 am
    47   25   28 1
    48   26   27 2
    49   28   29 1
    50   28   30 1
    51   28   35 1
    52   30   31 1
    53   30   55 1
    54   30   56 1
    55   31   32 1
    56   31   57 1
    57   31   58 1
    58   32   33 2
    59   32   34 1
    60   35   36 2
    61   35   37 1
@<TRIPOS>MOLECULE
CHEMBL170101
   55    57     0     0     0
SMALL
USER_CHARGES

@<TRIPOS>ATOM
      1 C1         -0.0167    1.3794    0.0096 C.ar      1 <0>        -0.1288
      2 C2          1.1667    2.0884    0.0021 C.ar      1 <0>        -0.0644
      3 C3          2.3848    1.4070   -0.0132 C.ar      1 <0>        -0.1113
      4 C4          2.3966    0.0113   -0.0208 C.ar      1 <0>        -0.0822
      5 C5          1.2061   -0.6856   -0.0132 C.ar      1 <0>        -0.1233
      6 C6          0.0021   -0.0041    0.0020 C.ar      1 <0>        -0.0771
      7 C7         -1.2946   -0.7719    0.0103 C.3       1 <0>        -0.0780
      8 C8         -1.7472   -1.0241   -1.4293 C.3       1 <0>        -0.1082
      9 C9         -3.0637   -1.8037   -1.4209 C.3       1 <0>        -0.1026
     10 C10        -3.4640   -2.1495   -2.8559 C.3       1 <0>        -0.0249
     11 C11        -4.8619   -2.7033   -2.8898 C.2       1 <0>        -0.3886
     12 C12        -5.7598   -2.4810   -1.8614 C.2       1 <0>         0.4826
     13 N1         -6.9978   -2.9885   -1.9380 N.2       1 <0>        -0.6234
     14 C13        -7.3780   -3.7034   -2.9752 C.2       1 <0>         0.6589
     15 N2         -6.5306   -3.9549   -4.0100 N.am      1 <0>        -0.6616
     16 C14        -5.2736   -3.4658   -3.9898 C.2       1 <0>         0.5540
     17 O1         -4.5078   -3.6840   -4.9154 O.2       1 <0>        -0.5479
     18 N3         -8.6516   -4.2048   -3.0138 N.pl3     1 <0>        -0.8237
     19 N4         -5.3968   -1.7452   -0.7492 N.pl3     1 <0>        -0.7072
     20 C15        -4.1680   -0.9418   -0.7948 C.3       1 <0>         0.1248
     21 C16         3.6569    2.1603   -0.0218 C.2       1 <0>         0.5431
     22 O2          3.6435    3.3757   -0.0155 O.2       1 <0>        -0.5538
     23 N5          4.8314    1.4994   -0.0366 N.am      1 <0>        -0.6753
     24 C17         6.0919    2.2459   -0.0451 C.3       1 <0>         0.0734
     25 C18         7.1909    1.3839   -0.6698 C.3       1 <0>        -0.0823
     26 C19         6.8626    1.1271   -2.1419 C.3       1 <0>        -0.1773
     27 C20         7.9450    0.2781   -2.7573 C.2       1 <0>         0.4912
     28 O3          8.8913   -0.0876   -2.0810 O.co2     1 <0>        -0.6979
     29 O4          7.8745   -0.0430   -3.9313 O.co2     1 <0>        -0.7191
     30 C21         6.4748    2.6012    1.3685 C.2       1 <0>         0.4985
     31 O5          6.1458    1.8742    2.2903 O.co2     1 <0>        -0.6988
     32 O6          7.1137    3.6157    1.5903 O.co2     1 <0>        -0.7011
     33 H1         -0.9598    1.9054    0.0260 H         1 <0>         0.1213
     34 H2          1.1508    3.1682    0.0077 H         1 <0>         0.1329
     35 H3          3.3358   -0.5219   -0.0330 H         1 <0>         0.1292
     36 H4          1.2138   -1.7656   -0.0191 H         1 <0>         0.1237
     37 H5         -1.1489   -1.7256    0.5176 H         1 <0>         0.0720
     38 H6         -2.0557   -0.1941    0.5345 H         1 <0>         0.0702
     39 H7         -1.8929   -0.0704   -1.9367 H         1 <0>         0.0698
     40 H8         -0.9861   -1.6019   -1.9536 H         1 <0>         0.0747
     41 H9         -2.9424   -2.7194   -0.8422 H         1 <0>         0.0787
     42 H10        -3.4173   -1.2502   -3.4701 H         1 <0>         0.0618
     43 H11        -2.7723   -2.8916   -3.2545 H         1 <0>         0.0742
     44 H12        -9.2635   -4.0317   -2.2813 H         1 <0>         0.4270
     45 H13        -8.9420   -4.7331   -3.7737 H         1 <0>         0.4141
     46 H14        -5.9461   -1.7589    0.0502 H         1 <0>         0.4069
     47 H15        -3.8802   -0.6504    0.2154 H         1 <0>         0.0918
     48 H16        -4.3314   -0.0525   -1.4034 H         1 <0>         0.0693
     49 H17         4.8421    0.5294   -0.0416 H         1 <0>         0.3915
     50 H18         5.9699    3.1583   -0.6287 H         1 <0>         0.0780
     51 H19         8.1462    1.9034   -0.5958 H         1 <0>         0.0727
     52 H20         7.2523    0.4333   -0.1400 H         1 <0>         0.0602
     53 H21         5.9072    0.6076   -2.2159 H         1 <0>         0.0512
     54 H22         6.8012    2.0777   -2.6717 H         1 <0>         0.0528
     55 H23        -6.8310   -4.4872   -4.7633 H         1 <0>         0.4083
@<TRIPOS>BOND
     1    1    6 ar
     2    1    2 ar
     3    1   33 1
     4    2    3 ar
     5    2   34 1
     6    3    4 ar
     7    3   21 1
     8    4    5 ar
     9    4   35 1
    10    5    6 ar
    11    5   36 1
    12    6    7 1
    13    7    8 1
    14    7   37 1
    15    7   38 1
    16    8    9 1
    17    8   39 1
    18    8   40 1
    19    9   20 1
    20    9   10 1
    21    9   41 1
    22   10   11 1
    23   10   42 1
    24   10   43 1
    25   11   16 1
    26   11   12 2
    27   12   13 1
    28   12   19 1
    29   13   14 2
    30   14   15 1
    31   14   18 1
    32   15   16 am
    33   15   55 1
    34   16   17 2
    35   18   44 1
    36   18   45 1
    37   19   20 1
    38   19   46 1
    39   20   47 1
    40   20   48 1
    41   21   22 2
    42   21   23 am
    43   23   24 1
    44   23   49 1
    45   24   25 1
    46   24   30 1
    47   24   50 1
    48   25   26 1
    49   25   51 1
    50   25   52 1
    51   26   27 1
    52   26   53 1
    53   26   54 1
    54   27   28 2
    55   27   29 1
    56   30   31 2
    57   30   32 1
@<TRIPOS>MOLECULE
CHEMBL170101__1
   55    57     0     0     0
SMALL
USER_CHARGES

@<TRIPOS>ATOM
      1 C1         -0.0167    1.3794    0.0096 C.ar      1 <0>        -0.1288
      2 C2          1.1667    2.0884    0.0021 C.ar      1 <0>        -0.0647
      3 C3          2.3848    1.4070   -0.0132 C.ar      1 <0>        -0.1086
      4 C4          2.3966    0.0113   -0.0208 C.ar      1 <0>        -0.0823
      5 C5          1.2061   -0.6856   -0.0132 C.ar      1 <0>        -0.1230
      6 C6          0.0021   -0.0041    0.0020 C.ar      1 <0>        -0.0791
      7 C7         -1.2946   -0.7719    0.0103 C.3       1 <0>        -0.0771
      8 C8         -1.7472   -1.0241   -1.4293 C.3       1 <0>        -0.1090
      9 C9         -3.0637   -1.8037   -1.4209 C.3       1 <0>        -0.1051
     10 C10        -3.4659   -2.1472   -2.8560 C.3       1 <0>        -0.0332
     11 C11        -4.8674   -2.6924   -2.8912 C.2       1 <0>        -0.3416
     12 C12        -5.7522   -2.4694   -1.8825 C.2       1 <0>         0.4434
     13 N1         -7.0195   -2.9859   -1.9763 N.pl3     1 <0>        -0.6544
     14 C13        -7.3818   -3.7178   -3.0650 C.2       1 <0>         0.6578
     15 N2         -6.5334   -3.9447   -4.0446 N.2       1 <0>        -0.6349
     16 C14        -5.2833   -3.4586   -4.0015 C.2       1 <0>         0.5434
     17 O1         -4.5073   -3.6789   -4.9202 O.2       1 <0>        -0.5259
     18 N3         -8.6509   -4.2271   -3.1419 N.pl3     1 <0>        -0.8256
     19 N4         -5.4004   -1.7421   -0.7685 N.pl3     1 <0>        -0.7319
     20 C15        -4.1686   -0.9419   -0.7946 C.3       1 <0>         0.1299
     21 C16         3.6569    2.1603   -0.0218 C.2       1 <0>         0.5475
     22 O2          3.6435    3.3757   -0.0155 O.2       1 <0>        -0.5559
     23 N5          4.8314    1.4994   -0.0366 N.am      1 <0>        -0.6743
     24 C17         6.0919    2.2459   -0.0451 C.3       1 <0>         0.0725
     25 C18         7.1909    1.3839   -0.6698 C.3       1 <0>        -0.0811
     26 C19         6.8626    1.1271   -2.1419 C.3       1 <0>        -0.1777
     27 C20         7.9450    0.2781   -2.7573 C.2       1 <0>         0.4910
     28 O3          8.8913   -0.0876   -2.0810 O.co2     1 <0>        -0.6977
     29 O4          7.8745   -0.0430   -3.9313 O.co2     1 <0>        -0.7191
     30 C21         6.4748    2.6012    1.3685 C.2       1 <0>         0.4973
     31 O5          5.8674    2.1124    2.3058 O.co2     1 <0>        -0.6983
     32 O6          7.3921    3.3775    1.5748 O.co2     1 <0>        -0.7007
     33 H1         -0.9598    1.9054    0.0260 H         1 <0>         0.1205
     34 H2          1.1508    3.1682    0.0077 H         1 <0>         0.1328
     35 H3          3.3358   -0.5219   -0.0330 H         1 <0>         0.1290
     36 H4          1.2138   -1.7656   -0.0191 H         1 <0>         0.1236
     37 H5         -1.1489   -1.7256    0.5176 H         1 <0>         0.0718
     38 H6         -2.0557   -0.1941    0.5345 H         1 <0>         0.0688
     39 H7         -1.8929   -0.0704   -1.9367 H         1 <0>         0.0706
     40 H8         -0.9861   -1.6019   -1.9536 H         1 <0>         0.0768
     41 H9         -2.9425   -2.7199   -0.8430 H         1 <0>         0.0799
     42 H10        -3.4131   -1.2484   -3.4702 H         1 <0>         0.0688
     43 H11        -2.7786   -2.8936   -3.2542 H         1 <0>         0.0825
     44 H12        -9.2829   -4.0650   -2.4242 H         1 <0>         0.4086
     45 H13        -8.9177   -4.7499   -3.9142 H         1 <0>         0.4304
     46 H14        -5.9587   -1.7579    0.0245 H         1 <0>         0.4017
     47 H15        -3.8881   -0.6627    0.2210 H         1 <0>         0.0945
     48 H16        -4.3231   -0.0457   -1.3955 H         1 <0>         0.0721
     49 H17         4.8421    0.5294   -0.0416 H         1 <0>         0.3901
     50 H18         5.9699    3.1583   -0.6287 H         1 <0>         0.0784
     51 H19         8.1462    1.9034   -0.5958 H         1 <0>         0.0772
     52 H20         7.2523    0.4333   -0.1400 H         1 <0>         0.0565
     53 H21         5.9072    0.6076   -2.2159 H         1 <0>         0.0506
     54 H22         6.8012    2.0777   -2.6717 H         1 <0>         0.0527
     55 H23        -7.6594   -2.8292   -1.2643 H         1 <0>         0.4094
@<TRIPOS>BOND
     1    1    6 ar
     2    1    2 ar
     3    1   33 1
     4    2    3 ar
     5    2   34 1
     6    3    4 ar
     7    3   21 1
     8    4    5 ar
     9    4   35 1
    10    5    6 ar
    11    5   36 1
    12    6    7 1
    13    7    8 1
    14    7   37 1
    15    7   38 1
    16    8    9 1
    17    8   39 1
    18    8   40 1
    19    9   20 1
    20    9   10 1
    21    9   41 1
    22   10   11 1
    23   10   42 1
    24   10   43 1
    25   11   16 1
    26   11   12 2
    27   12   13 1
    28   12   19 1
    29   13   14 1
    30   13   55 1
    31   14   15 2
    32   14   18 1
    33   15   16 1
    34   16   17 2
    35   18   44 1
    36   18   45 1
    37   19   20 1
    38   19   46 1
    39   20   47 1
    40   20   48 1
    41   21   22 2
    42   21   23 am
    43   23   24 1
    44   23   49 1
    45   24   25 1
    46   24   30 1
    47   24   50 1
    48   25   26 1
    49   25   51 1
    50   25   52 1
    51   26   27 1
    52   26   53 1
    53   26   54 1
    54   27   28 2
    55   27   29 1
    56   30   31 2
    57   30   32 1
@<TRIPOS>MOLECULE
CHEMBL170101__2
   55    57     0     0     0
SMALL
USER_CHARGES

@<TRIPOS>ATOM
      1 C1         -0.0167    1.3794    0.0096 C.ar      1 <0>        -0.1287
      2 C2          1.1667    2.0884    0.0021 C.ar      1 <0>        -0.0647
      3 C3          2.3848    1.4070   -0.0132 C.ar      1 <0>        -0.1088
      4 C4          2.3966    0.0113   -0.0208 C.ar      1 <0>        -0.0832
      5 C5          1.2061   -0.6856   -0.0132 C.ar      1 <0>        -0.1235
      6 C6          0.0021   -0.0041    0.0020 C.ar      1 <0>        -0.0782
      7 C7         -1.2946   -0.7719    0.0103 C.3       1 <0>        -0.0777
      8 C8         -1.7472   -1.0241   -1.4293 C.3       1 <0>        -0.1083
      9 C9         -3.0637   -1.8037   -1.4209 C.3       1 <0>        -0.1026
     10 C10        -3.4640   -2.1495   -2.8559 C.3       1 <0>        -0.0248
     11 C11        -4.8619   -2.7033   -2.8898 C.2       1 <0>        -0.3886
     12 C12        -5.7598   -2.4810   -1.8614 C.2       1 <0>         0.4826
     13 N1         -6.9978   -2.9885   -1.9380 N.2       1 <0>        -0.6234
     14 C13        -7.3780   -3.7034   -2.9752 C.2       1 <0>         0.6589
     15 N2         -6.5306   -3.9549   -4.0100 N.am      1 <0>        -0.6616
     16 C14        -5.2736   -3.4658   -3.9898 C.2       1 <0>         0.5542
     17 O1         -4.5078   -3.6840   -4.9154 O.2       1 <0>        -0.5484
     18 N3         -8.6516   -4.2048   -3.0138 N.pl3     1 <0>        -0.8237
     19 N4         -5.3968   -1.7452   -0.7492 N.pl3     1 <0>        -0.7070
     20 C15        -4.1680   -0.9418   -0.7948 C.3       1 <0>         0.1248
     21 C16         3.6569    2.1603   -0.0218 C.2       1 <0>         0.5500
     22 O2          3.6435    3.3757   -0.0155 O.2       1 <0>        -0.5552
     23 N5          4.8314    1.4994   -0.0366 N.am      1 <0>        -0.6757
     24 C17         6.0919    2.2459   -0.0451 C.3       1 <0>         0.0724
     25 C18         7.2027    1.3778    0.5494 C.3       1 <0>        -0.0805
     26 C19         6.9032    1.1060    2.0250 C.3       1 <0>        -0.1778
     27 C20         7.9973    0.2510    2.6105 C.2       1 <0>         0.4910
     28 O3          8.9302   -0.1078    1.9123 O.co2     1 <0>        -0.6970
     29 O4          7.9496   -0.0820    3.7824 O.co2     1 <0>        -0.7204
     30 C21         6.4472    2.6155   -1.4622 C.2       1 <0>         0.4956
     31 O5          5.7154    2.2860   -2.3799 O.co2     1 <0>        -0.6965
     32 O6          7.4666    3.2441   -1.6909 O.co2     1 <0>        -0.7001
     33 H1         -0.9598    1.9054    0.0260 H         1 <0>         0.1210
     34 H2          1.1508    3.1682    0.0077 H         1 <0>         0.1327
     35 H3          3.3358   -0.5219   -0.0330 H         1 <0>         0.1282
     36 H4          1.2138   -1.7656   -0.0191 H         1 <0>         0.1232
     37 H5         -1.1489   -1.7256    0.5176 H         1 <0>         0.0718
     38 H6         -2.0557   -0.1941    0.5345 H         1 <0>         0.0700
     39 H7         -1.8929   -0.0704   -1.9367 H         1 <0>         0.0700
     40 H8         -0.9861   -1.6019   -1.9536 H         1 <0>         0.0745
     41 H9         -2.9424   -2.7194   -0.8422 H         1 <0>         0.0787
     42 H10        -3.4173   -1.2502   -3.4701 H         1 <0>         0.0619
     43 H11        -2.7723   -2.8916   -3.2545 H         1 <0>         0.0740
     44 H12        -9.2635   -4.0317   -2.2813 H         1 <0>         0.4270
     45 H13        -8.9420   -4.7331   -3.7737 H         1 <0>         0.4140
     46 H14        -5.9461   -1.7589    0.0502 H         1 <0>         0.4069
     47 H15        -3.8802   -0.6504    0.2154 H         1 <0>         0.0919
     48 H16        -4.3314   -0.0525   -1.4034 H         1 <0>         0.0694
     49 H17         4.8421    0.5294   -0.0416 H         1 <0>         0.3893
     50 H18         5.9814    3.1523    0.5501 H         1 <0>         0.0779
     51 H19         7.2537    0.4325    0.0090 H         1 <0>         0.0551
     52 H20         8.1565    1.8981    0.4621 H         1 <0>         0.0793
     53 H21         6.8522    2.0513    2.5654 H         1 <0>         0.0522
     54 H22         5.9494    0.5857    2.1123 H         1 <0>         0.0500
     55 H23        -6.8310   -4.4872   -4.7633 H         1 <0>         0.4083
@<TRIPOS>BOND
     1    1    6 ar
     2    1    2 ar
     3    1   33 1
     4    2    3 ar
     5    2   34 1
     6    3    4 ar
     7    3   21 1
     8    4    5 ar
     9    4   35 1
    10    5    6 ar
    11    5   36 1
    12    6    7 1
    13    7    8 1
    14    7   37 1
    15    7   38 1
    16    8    9 1
    17    8   39 1
    18    8   40 1
    19    9   20 1
    20    9   10 1
    21    9   41 1
    22   10   11 1
    23   10   42 1
    24   10   43 1
    25   11   16 1
    26   11   12 2
    27   12   13 1
    28   12   19 1
    29   13   14 2
    30   14   15 1
    31   14   18 1
    32   15   16 am
    33   15   55 1
    34   16   17 2
    35   18   44 1
    36   18   45 1
    37   19   20 1
    38   19   46 1
    39   20   47 1
    40   20   48 1
    41   21   22 2
    42   21   23 am
    43   23   24 1
    44   23   49 1
    45   24   25 1
    46   24   30 1
    47   24   50 1
    48   25   26 1
    49   25   51 1
    50   25   52 1
    51   26   27 1
    52   26   53 1
    53   26   54 1
    54   27   28 2
    55   27   29 1
    56   30   31 2
    57   30   32 1
@<TRIPOS>MOLECULE
CHEMBL170101__3
   55    57     0     0     0
SMALL
USER_CHARGES

@<TRIPOS>ATOM
      1 C1         -0.0167    1.3794    0.0096 C.ar      1 <0>        -0.1289
      2 C2          1.1667    2.0884    0.0021 C.ar      1 <0>        -0.0645
      3 C3          2.3848    1.4070   -0.0132 C.ar      1 <0>        -0.1104
      4 C4          2.3966    0.0113   -0.0208 C.ar      1 <0>        -0.0820
      5 C5          1.2061   -0.6856   -0.0132 C.ar      1 <0>        -0.1228
      6 C6          0.0021   -0.0041    0.0020 C.ar      1 <0>        -0.0784
      7 C7         -1.2946   -0.7719    0.0103 C.3       1 <0>        -0.0772
      8 C8         -1.7472   -1.0241   -1.4293 C.3       1 <0>        -0.1092
      9 C9         -3.0637   -1.8037   -1.4209 C.3       1 <0>        -0.1051
     10 C10        -3.4659   -2.1472   -2.8560 C.3       1 <0>        -0.0331
     11 C11        -4.8674   -2.6924   -2.8912 C.2       1 <0>        -0.3418
     12 C12        -5.7522   -2.4694   -1.8825 C.2       1 <0>         0.4436
     13 N1         -7.0195   -2.9859   -1.9763 N.pl3     1 <0>        -0.6544
     14 C13        -7.3818   -3.7178   -3.0650 C.2       1 <0>         0.6579
     15 N2         -6.5334   -3.9447   -4.0446 N.2       1 <0>        -0.6350
     16 C14        -5.2833   -3.4586   -4.0015 C.2       1 <0>         0.5436
     17 O1         -4.5073   -3.6789   -4.9202 O.2       1 <0>        -0.5263
     18 N3         -8.6509   -4.2271   -3.1419 N.pl3     1 <0>        -0.8255
     19 N4         -5.4004   -1.7421   -0.7685 N.pl3     1 <0>        -0.7319
     20 C15        -4.1686   -0.9419   -0.7946 C.3       1 <0>         0.1299
     21 C16         3.6569    2.1603   -0.0218 C.2       1 <0>         0.5428
     22 O2          3.6435    3.3757   -0.0155 O.2       1 <0>        -0.5536
     23 N5          4.8314    1.4994   -0.0366 N.am      1 <0>        -0.6749
     24 C17         6.0919    2.2459   -0.0451 C.3       1 <0>         0.0734
     25 C18         7.2027    1.3778    0.5494 C.3       1 <0>        -0.0826
     26 C19         6.9032    1.1060    2.0250 C.3       1 <0>        -0.1771
     27 C20         7.9973    0.2510    2.6105 C.2       1 <0>         0.4912
     28 O3          8.9302   -0.1078    1.9123 O.co2     1 <0>        -0.6972
     29 O4          7.9496   -0.0820    3.7824 O.co2     1 <0>        -0.7199
     30 C21         6.4472    2.6155   -1.4622 C.2       1 <0>         0.4982
     31 O5          7.0818    3.6322   -1.6861 O.co2     1 <0>        -0.7010
     32 O6          6.1002    1.8979   -2.3847 O.co2     1 <0>        -0.6979
     33 H1         -0.9598    1.9054    0.0260 H         1 <0>         0.1208
     34 H2          1.1508    3.1682    0.0077 H         1 <0>         0.1331
     35 H3          3.3358   -0.5219   -0.0330 H         1 <0>         0.1296
     36 H4          1.2138   -1.7656   -0.0191 H         1 <0>         0.1240
     37 H5         -1.1489   -1.7256    0.5176 H         1 <0>         0.0721
     38 H6         -2.0557   -0.1941    0.5345 H         1 <0>         0.0689
     39 H7         -1.8929   -0.0704   -1.9367 H         1 <0>         0.0708
     40 H8         -0.9861   -1.6019   -1.9536 H         1 <0>         0.0767
     41 H9         -2.9425   -2.7199   -0.8430 H         1 <0>         0.0800
     42 H10        -3.4131   -1.2484   -3.4702 H         1 <0>         0.0688
     43 H11        -2.7786   -2.8936   -3.2542 H         1 <0>         0.0823
     44 H12        -9.2829   -4.0650   -2.4242 H         1 <0>         0.4087
     45 H13        -8.9177   -4.7499   -3.9142 H         1 <0>         0.4304
     46 H14        -5.9587   -1.7579    0.0245 H         1 <0>         0.4018
     47 H15        -3.8881   -0.6627    0.2210 H         1 <0>         0.0945
     48 H16        -4.3231   -0.0457   -1.3955 H         1 <0>         0.0722
     49 H17         4.8421    0.5294   -0.0416 H         1 <0>         0.3915
     50 H18         5.9814    3.1523    0.5501 H         1 <0>         0.0779
     51 H19         7.2537    0.4325    0.0090 H         1 <0>         0.0604
     52 H20         8.1565    1.8981    0.4621 H         1 <0>         0.0729
     53 H21         6.8522    2.0513    2.5654 H         1 <0>         0.0526
     54 H22         5.9494    0.5857    2.1123 H         1 <0>         0.0509
     55 H23        -7.6594   -2.8292   -1.2643 H         1 <0>         0.4094
@<TRIPOS>BOND
     1    1    6 ar
     2    1    2 ar
     3    1   33 1
     4    2    3 ar
     5    2   34 1
     6    3    4 ar
     7    3   21 1
     8    4    5 ar
     9    4   35 1
    10    5    6 ar
    11    5   36 1
    12    6    7 1
    13    7    8 1
    14    7   37 1
    15    7   38 1
    16    8    9 1
    17    8   39 1
    18    8   40 1
    19    9   20 1
    20    9   10 1
    21    9   41 1
    22   10   11 1
    23   10   42 1
    24   10   43 1
    25   11   16 1
    26   11   12 2
    27   12   13 1
    28   12   19 1
    29   13   14 1
    30   13   55 1
    31   14   15 2
    32   14   18 1
    33   15   16 1
    34   16   17 2
    35   18   44 1
    36   18   45 1
    37   19   20 1
    38   19   46 1
    39   20   47 1
    40   20   48 1
    41   21   22 2
    42   21   23 am
    43   23   24 1
    44   23   49 1
    45   24   25 1
    46   24   30 1
    47   24   50 1
    48   25   26 1
    49   25   51 1
    50   25   52 1
    51   26   27 1
    52   26   53 1
    53   26   54 1
    54   27   28 2
    55   27   29 1
    56   30   31 2
    57   30   32 1
@<TRIPOS>MOLECULE
CHEMBL170101__4
   55    57     0     0     0
SMALL
USER_CHARGES

@<TRIPOS>ATOM
      1 C1         -0.0167    1.3794    0.0096 C.ar      1 <0>        -0.1282
      2 C2          1.1667    2.0884    0.0021 C.ar      1 <0>        -0.0640
      3 C3          2.3848    1.4070   -0.0132 C.ar      1 <0>        -0.1113
      4 C4          2.3966    0.0113   -0.0208 C.ar      1 <0>        -0.0826
      5 C5          1.2061   -0.6856   -0.0132 C.ar      1 <0>        -0.1240
      6 C6          0.0021   -0.0041    0.0020 C.ar      1 <0>        -0.0771
      7 C7         -1.2946   -0.7719    0.0103 C.3       1 <0>        -0.0780
      8 C8         -1.7472   -1.0241   -1.4293 C.3       1 <0>        -0.1083
      9 C9         -3.0637   -1.8037   -1.4209 C.3       1 <0>        -0.1021
     10 C10        -3.5733   -1.9650   -2.8539 C.3       1 <0>        -0.0246
     11 C11        -4.7313   -2.9238   -2.8923 C.2       1 <0>        -0.3894
     12 C12        -4.9582   -3.8348   -1.8764 C.2       1 <0>         0.4833
     13 N1         -5.9992   -4.6749   -1.9566 N.2       1 <0>        -0.6230
     14 C13        -6.8189   -4.6476   -2.9856 C.2       1 <0>         0.6589
     15 N2         -6.6420   -3.7669   -4.0079 N.am      1 <0>        -0.6616
     16 C14        -5.6085   -2.9003   -3.9835 C.2       1 <0>         0.5543
     17 O1         -5.4409   -2.1083   -4.8976 O.2       1 <0>        -0.5495
     18 N3         -7.8708   -5.5233   -3.0288 N.pl3     1 <0>        -0.8237
     19 N4         -4.1279   -3.8883   -0.7729 N.pl3     1 <0>        -0.7066
     20 C15        -2.8330   -3.1964   -0.8196 C.3       1 <0>         0.1238
     21 C16         3.6569    2.1603   -0.0218 C.2       1 <0>         0.5430
     22 O2          3.6435    3.3757   -0.0155 O.2       1 <0>        -0.5534
     23 N5          4.8314    1.4994   -0.0366 N.am      1 <0>        -0.6753
     24 C17         6.0919    2.2459   -0.0451 C.3       1 <0>         0.0734
     25 C18         7.1909    1.3839   -0.6698 C.3       1 <0>        -0.0822
     26 C19         6.8626    1.1271   -2.1419 C.3       1 <0>        -0.1773
     27 C20         7.9450    0.2781   -2.7573 C.2       1 <0>         0.4912
     28 O3          8.8913   -0.0876   -2.0810 O.co2     1 <0>        -0.6978
     29 O4          7.8745   -0.0430   -3.9313 O.co2     1 <0>        -0.7193
     30 C21         6.4748    2.6012    1.3685 C.2       1 <0>         0.4984
     31 O5          6.1458    1.8742    2.2903 O.co2     1 <0>        -0.6989
     32 O6          7.1137    3.6157    1.5903 O.co2     1 <0>        -0.7010
     33 H1         -0.9598    1.9054    0.0260 H         1 <0>         0.1217
     34 H2          1.1508    3.1682    0.0077 H         1 <0>         0.1330
     35 H3          3.3358   -0.5219   -0.0330 H         1 <0>         0.1292
     36 H4          1.2138   -1.7656   -0.0191 H         1 <0>         0.1234
     37 H5         -1.1489   -1.7256    0.5176 H         1 <0>         0.0712
     38 H6         -2.0557   -0.1941    0.5345 H         1 <0>         0.0709
     39 H7         -1.8929   -0.0704   -1.9367 H         1 <0>         0.0733
     40 H8         -0.9861   -1.6019   -1.9536 H         1 <0>         0.0713
     41 H9         -3.8026   -1.2666   -0.8262 H         1 <0>         0.0778
     42 H10        -3.8951   -0.9953   -3.2335 H         1 <0>         0.0730
     43 H11        -2.7683   -2.3462   -3.4822 H         1 <0>         0.0625
     44 H12        -8.0058   -6.1553   -2.3055 H         1 <0>         0.4271
     45 H13        -8.4810   -5.5115   -3.7828 H         1 <0>         0.4140
     46 H14        -4.3965   -4.3758    0.0215 H         1 <0>         0.4071
     47 H15        -2.1377   -3.7572   -1.4443 H         1 <0>         0.0707
     48 H16        -2.4294   -3.1006    0.1883 H         1 <0>         0.0924
     49 H17         4.8421    0.5294   -0.0416 H         1 <0>         0.3914
     50 H18         5.9699    3.1583   -0.6287 H         1 <0>         0.0780
     51 H19         8.1462    1.9034   -0.5958 H         1 <0>         0.0727
     52 H20         7.2523    0.4333   -0.1400 H         1 <0>         0.0601
     53 H21         5.9072    0.6076   -2.2159 H         1 <0>         0.0512
     54 H22         6.8012    2.0777   -2.6717 H         1 <0>         0.0528
     55 H23        -7.2599   -3.7625   -4.7556 H         1 <0>         0.4082
@<TRIPOS>BOND
     1    1    6 ar
     2    1    2 ar
     3    1   33 1
     4    2    3 ar
     5    2   34 1
     6    3    4 ar
     7    3   21 1
     8    4    5 ar
     9    4   35 1
    10    5    6 ar
    11    5   36 1
    12    6    7 1
    13    7    8 1
    14    7   37 1
    15    7   38 1
    16    8    9 1
    17    8   39 1
    18    8   40 1
    19    9   20 1
    20    9   10 1
    21    9   41 1
    22   10   11 1
    23   10   42 1
    24   10   43 1
    25   11   16 1
    26   11   12 2
    27   12   13 1
    28   12   19 1
    29   13   14 2
    30   14   15 1
    31   14   18 1
    32   15   16 am
    33   15   55 1
    34   16   17 2
    35   18   44 1
    36   18   45 1
    37   19   20 1
    38   19   46 1
    39   20   47 1
    40   20   48 1
    41   21   22 2
    42   21   23 am
    43   23   24 1
    44   23   49 1
    45   24   25 1
    46   24   30 1
    47   24   50 1
    48   25   26 1
    49   25   51 1
    50   25   52 1
    51   26   27 1
    52   26   53 1
    53   26   54 1
    54   27   28 2
    55   27   29 1
    56   30   31 2
    57   30   32 1
@<TRIPOS>MOLECULE
CHEMBL170101__5
   55    57     0     0     0
SMALL
USER_CHARGES

@<TRIPOS>ATOM
      1 C1         -0.0167    1.3794    0.0096 C.ar      1 <0>        -0.1277
      2 C2          1.1667    2.0884    0.0021 C.ar      1 <0>        -0.0639
      3 C3          2.3848    1.4070   -0.0132 C.ar      1 <0>        -0.1086
      4 C4          2.3966    0.0113   -0.0208 C.ar      1 <0>        -0.0831
      5 C5          1.2061   -0.6856   -0.0132 C.ar      1 <0>        -0.1241
      6 C6          0.0021   -0.0041    0.0020 C.ar      1 <0>        -0.0791
      7 C7         -1.2946   -0.7719    0.0103 C.3       1 <0>        -0.0770
      8 C8         -1.7472   -1.0241   -1.4293 C.3       1 <0>        -0.1091
      9 C9         -3.0637   -1.8037   -1.4209 C.3       1 <0>        -0.1046
     10 C10        -3.5722   -1.9677   -2.8540 C.3       1 <0>        -0.0329
     11 C11        -4.7244   -2.9339   -2.8939 C.2       1 <0>        -0.3427
     12 C12        -4.9446   -3.8333   -1.8976 C.2       1 <0>         0.4444
     13 N1         -6.0077   -4.6946   -1.9951 N.pl3     1 <0>        -0.6543
     14 C13        -6.8337   -4.6432   -3.0756 C.2       1 <0>         0.6580
     15 N2         -6.6336   -3.7749   -4.0435 N.2       1 <0>        -0.6354
     16 C14        -5.6069   -2.9120   -3.9954 C.2       1 <0>         0.5440
     17 O1         -5.4358   -2.1108   -4.9029 O.2       1 <0>        -0.5275
     18 N3         -7.8907   -5.5105   -3.1570 N.pl3     1 <0>        -0.8255
     19 N4         -4.1270   -3.8926   -0.7923 N.pl3     1 <0>        -0.7315
     20 C15        -2.8334   -3.1969   -0.8195 C.3       1 <0>         0.1289
     21 C16         3.6569    2.1603   -0.0218 C.2       1 <0>         0.5474
     22 O2          3.6435    3.3757   -0.0155 O.2       1 <0>        -0.5552
     23 N5          4.8314    1.4994   -0.0366 N.am      1 <0>        -0.6745
     24 C17         6.0919    2.2459   -0.0451 C.3       1 <0>         0.0724
     25 C18         7.1909    1.3839   -0.6698 C.3       1 <0>        -0.0809
     26 C19         6.8626    1.1271   -2.1419 C.3       1 <0>        -0.1777
     27 C20         7.9450    0.2781   -2.7573 C.2       1 <0>         0.4910
     28 O3          8.8913   -0.0876   -2.0810 O.co2     1 <0>        -0.6977
     29 O4          7.8745   -0.0430   -3.9313 O.co2     1 <0>        -0.7193
     30 C21         6.4748    2.6012    1.3685 C.2       1 <0>         0.4973
     31 O5          5.8674    2.1124    2.3058 O.co2     1 <0>        -0.6984
     32 O6          7.3921    3.3775    1.5748 O.co2     1 <0>        -0.7006
     33 H1         -0.9598    1.9054    0.0260 H         1 <0>         0.1216
     34 H2          1.1508    3.1682    0.0077 H         1 <0>         0.1332
     35 H3          3.3358   -0.5219   -0.0330 H         1 <0>         0.1286
     36 H4          1.2138   -1.7656   -0.0191 H         1 <0>         0.1225
     37 H5         -1.1489   -1.7256    0.5176 H         1 <0>         0.0698
     38 H6         -2.0557   -0.1941    0.5345 H         1 <0>         0.0708
     39 H7         -1.8929   -0.0704   -1.9367 H         1 <0>         0.0753
     40 H8         -0.9861   -1.6019   -1.9536 H         1 <0>         0.0721
     41 H9         -3.8031   -1.2665   -0.8269 H         1 <0>         0.0790
     42 H10        -3.8999   -0.9999   -3.2333 H         1 <0>         0.0813
     43 H11        -2.7647   -2.3435   -3.4823 H         1 <0>         0.0694
     44 H12        -8.0455   -6.1542   -2.4481 H         1 <0>         0.4088
     45 H13        -8.4844   -5.4809   -3.9234 H         1 <0>         0.4303
     46 H14        -4.4017   -4.3875   -0.0045 H         1 <0>         0.4019
     47 H15        -2.1277   -3.7533   -1.4364 H         1 <0>         0.0735
     48 H16        -2.4439   -3.1017    0.1941 H         1 <0>         0.0950
     49 H17         4.8421    0.5294   -0.0416 H         1 <0>         0.3898
     50 H18         5.9699    3.1583   -0.6287 H         1 <0>         0.0785
     51 H19         8.1462    1.9034   -0.5958 H         1 <0>         0.0772
     52 H20         7.2523    0.4333   -0.1400 H         1 <0>         0.0563
     53 H21         5.9072    0.6076   -2.2159 H         1 <0>         0.0505
     54 H22         6.8012    2.0777   -2.6717 H         1 <0>         0.0528
     55 H23        -6.1712   -5.3425   -1.2920 H         1 <0>         0.4096
@<TRIPOS>BOND
     1    1    6 ar
     2    1    2 ar
     3    1   33 1
     4    2    3 ar
     5    2   34 1
     6    3    4 ar
     7    3   21 1
     8    4    5 ar
     9    4   35 1
    10    5    6 ar
    11    5   36 1
    12    6    7 1
    13    7    8 1
    14    7   37 1
    15    7   38 1
    16    8    9 1
    17    8   39 1
    18    8   40 1
    19    9   20 1
    20    9   10 1
    21    9   41 1
    22   10   11 1
    23   10   42 1
    24   10   43 1
    25   11   16 1
    26   11   12 2
    27   12   13 1
    28   12   19 1
    29   13   14 1
    30   13   55 1
    31   14   15 2
    32   14   18 1
    33   15   16 1
    34   16   17 2
    35   18   44 1
    36   18   45 1
    37   19   20 1
    38   19   46 1
    39   20   47 1
    40   20   48 1
    41   21   22 2
    42   21   23 am
    43   23   24 1
    44   23   49 1
    45   24   25 1
    46   24   30 1
    47   24   50 1
    48   25   26 1
    49   25   51 1
    50   25   52 1
    51   26   27 1
    52   26   53 1
    53   26   54 1
    54   27   28 2
    55   27   29 1
    56   30   31 2
    57   30   32 1
@<TRIPOS>MOLECULE
CHEMBL170101__6
   55    57     0     0     0
SMALL
USER_CHARGES

@<TRIPOS>ATOM
      1 C1         -0.0167    1.3794    0.0096 C.ar      1 <0>        -0.1281
      2 C2          1.1667    2.0884    0.0021 C.ar      1 <0>        -0.0643
      3 C3          2.3848    1.4070   -0.0132 C.ar      1 <0>        -0.1088
      4 C4          2.3966    0.0113   -0.0208 C.ar      1 <0>        -0.0836
      5 C5          1.2061   -0.6856   -0.0132 C.ar      1 <0>        -0.1241
      6 C6          0.0021   -0.0041    0.0020 C.ar      1 <0>        -0.0782
      7 C7         -1.2946   -0.7719    0.0103 C.3       1 <0>        -0.0777
      8 C8         -1.7472   -1.0241   -1.4293 C.3       1 <0>        -0.1085
      9 C9         -3.0637   -1.8037   -1.4209 C.3       1 <0>        -0.1020
     10 C10        -3.5733   -1.9650   -2.8539 C.3       1 <0>        -0.0246
     11 C11        -4.7313   -2.9238   -2.8923 C.2       1 <0>        -0.3894
     12 C12        -4.9582   -3.8348   -1.8764 C.2       1 <0>         0.4833
     13 N1         -5.9992   -4.6749   -1.9566 N.2       1 <0>        -0.6229
     14 C13        -6.8189   -4.6476   -2.9856 C.2       1 <0>         0.6588
     15 N2         -6.6420   -3.7669   -4.0079 N.am      1 <0>        -0.6617
     16 C14        -5.6085   -2.9003   -3.9835 C.2       1 <0>         0.5543
     17 O1         -5.4409   -2.1083   -4.8976 O.2       1 <0>        -0.5496
     18 N3         -7.8708   -5.5233   -3.0288 N.pl3     1 <0>        -0.8237
     19 N4         -4.1279   -3.8883   -0.7729 N.pl3     1 <0>        -0.7065
     20 C15        -2.8330   -3.1964   -0.8196 C.3       1 <0>         0.1239
     21 C16         3.6569    2.1603   -0.0218 C.2       1 <0>         0.5499
     22 O2          3.6435    3.3757   -0.0155 O.2       1 <0>        -0.5549
     23 N5          4.8314    1.4994   -0.0366 N.am      1 <0>        -0.6758
     24 C17         6.0919    2.2459   -0.0451 C.3       1 <0>         0.0724
     25 C18         7.2027    1.3778    0.5494 C.3       1 <0>        -0.0803
     26 C19         6.9032    1.1060    2.0250 C.3       1 <0>        -0.1779
     27 C20         7.9973    0.2510    2.6105 C.2       1 <0>         0.4910
     28 O3          8.9302   -0.1078    1.9123 O.co2     1 <0>        -0.6970
     29 O4          7.9496   -0.0820    3.7824 O.co2     1 <0>        -0.7204
     30 C21         6.4472    2.6155   -1.4622 C.2       1 <0>         0.4955
     31 O5          5.7154    2.2860   -2.3799 O.co2     1 <0>        -0.6965
     32 O6          7.4666    3.2441   -1.6909 O.co2     1 <0>        -0.7001
     33 H1         -0.9598    1.9054    0.0260 H         1 <0>         0.1213
     34 H2          1.1508    3.1682    0.0077 H         1 <0>         0.1328
     35 H3          3.3358   -0.5219   -0.0330 H         1 <0>         0.1281
     36 H4          1.2138   -1.7656   -0.0191 H         1 <0>         0.1228
     37 H5         -1.1489   -1.7256    0.5176 H         1 <0>         0.0710
     38 H6         -2.0557   -0.1941    0.5345 H         1 <0>         0.0707
     39 H7         -1.8929   -0.0704   -1.9367 H         1 <0>         0.0735
     40 H8         -0.9861   -1.6019   -1.9536 H         1 <0>         0.0711
     41 H9         -3.8026   -1.2666   -0.8262 H         1 <0>         0.0778
     42 H10        -3.8951   -0.9953   -3.2335 H         1 <0>         0.0731
     43 H11        -2.7683   -2.3462   -3.4822 H         1 <0>         0.0623
     44 H12        -8.0058   -6.1553   -2.3055 H         1 <0>         0.4271
     45 H13        -8.4810   -5.5115   -3.7828 H         1 <0>         0.4140
     46 H14        -4.3965   -4.3758    0.0215 H         1 <0>         0.4072
     47 H15        -2.1377   -3.7572   -1.4443 H         1 <0>         0.0705
     48 H16        -2.4294   -3.1006    0.1883 H         1 <0>         0.0925
     49 H17         4.8421    0.5294   -0.0416 H         1 <0>         0.3891
     50 H18         5.9814    3.1523    0.5501 H         1 <0>         0.0779
     51 H19         7.2537    0.4325    0.0090 H         1 <0>         0.0550
     52 H20         8.1565    1.8981    0.4621 H         1 <0>         0.0792
     53 H21         6.8522    2.0513    2.5654 H         1 <0>         0.0522
     54 H22         5.9494    0.5857    2.1123 H         1 <0>         0.0500
     55 H23        -7.2599   -3.7625   -4.7556 H         1 <0>         0.4081
@<TRIPOS>BOND
     1    1    6 ar
     2    1    2 ar
     3    1   33 1
     4    2    3 ar
     5    2   34 1
     6    3    4 ar
     7    3   21 1
     8    4    5 ar
     9    4   35 1
    10    5    6 ar
    11    5   36 1
    12    6    7 1
    13    7    8 1
    14    7   37 1
    15    7   38 1
    16    8    9 1
    17    8   39 1
    18    8   40 1
    19    9   20 1
    20    9   10 1
    21    9   41 1
    22   10   11 1
    23   10   42 1
    24   10   43 1
    25   11   16 1
    26   11   12 2
    27   12   13 1
    28   12   19 1
    29   13   14 2
    30   14   15 1
    31   14   18 1
    32   15   16 am
    33   15   55 1
    34   16   17 2
    35   18   44 1
    36   18   45 1
    37   19   20 1
    38   19   46 1
    39   20   47 1
    40   20   48 1
    41   21   22 2
    42   21   23 am
    43   23   24 1
    44   23   49 1
    45   24   25 1
    46   24   30 1
    47   24   50 1
    48   25   26 1
    49   25   51 1
    50   25   52 1
    51   26   27 1
    52   26   53 1
    53   26   54 1
    54   27   28 2
    55   27   29 1
    56   30   31 2
    57   30   32 1
@<TRIPOS>MOLECULE
CHEMBL170101__7
   55    57     0     0     0
SMALL
USER_CHARGES

@<TRIPOS>ATOM
      1 C1         -0.0167    1.3794    0.0096 C.ar      1 <0>        -0.1278
      2 C2          1.1667    2.0884    0.0021 C.ar      1 <0>        -0.0637
      3 C3          2.3848    1.4070   -0.0132 C.ar      1 <0>        -0.1104
      4 C4          2.3966    0.0113   -0.0208 C.ar      1 <0>        -0.0827
      5 C5          1.2061   -0.6856   -0.0132 C.ar      1 <0>        -0.1240
      6 C6          0.0021   -0.0041    0.0020 C.ar      1 <0>        -0.0784
      7 C7         -1.2946   -0.7719    0.0103 C.3       1 <0>        -0.0772
      8 C8         -1.7472   -1.0241   -1.4293 C.3       1 <0>        -0.1093
      9 C9         -3.0637   -1.8037   -1.4209 C.3       1 <0>        -0.1045
     10 C10        -3.5722   -1.9677   -2.8540 C.3       1 <0>        -0.0328
     11 C11        -4.7244   -2.9339   -2.8939 C.2       1 <0>        -0.3429
     12 C12        -4.9446   -3.8333   -1.8976 C.2       1 <0>         0.4445
     13 N1         -6.0077   -4.6946   -1.9951 N.pl3     1 <0>        -0.6543
     14 C13        -6.8337   -4.6432   -3.0756 C.2       1 <0>         0.6581
     15 N2         -6.6336   -3.7749   -4.0435 N.2       1 <0>        -0.6354
     16 C14        -5.6069   -2.9120   -3.9954 C.2       1 <0>         0.5440
     17 O1         -5.4358   -2.1108   -4.9029 O.2       1 <0>        -0.5276
     18 N3         -7.8907   -5.5105   -3.1570 N.pl3     1 <0>        -0.8255
     19 N4         -4.1270   -3.8926   -0.7923 N.pl3     1 <0>        -0.7314
     20 C15        -2.8334   -3.1969   -0.8195 C.3       1 <0>         0.1290
     21 C16         3.6569    2.1603   -0.0218 C.2       1 <0>         0.5427
     22 O2          3.6435    3.3757   -0.0155 O.2       1 <0>        -0.5529
     23 N5          4.8314    1.4994   -0.0366 N.am      1 <0>        -0.6752
     24 C17         6.0919    2.2459   -0.0451 C.3       1 <0>         0.0734
     25 C18         7.2027    1.3778    0.5494 C.3       1 <0>        -0.0824
     26 C19         6.9032    1.1060    2.0250 C.3       1 <0>        -0.1771
     27 C20         7.9973    0.2510    2.6105 C.2       1 <0>         0.4912
     28 O3          8.9302   -0.1078    1.9123 O.co2     1 <0>        -0.6973
     29 O4          7.9496   -0.0820    3.7824 O.co2     1 <0>        -0.7199
     30 C21         6.4472    2.6155   -1.4622 C.2       1 <0>         0.4982
     31 O5          7.0818    3.6322   -1.6861 O.co2     1 <0>        -0.7008
     32 O6          6.1002    1.8979   -2.3847 O.co2     1 <0>        -0.6982
     33 H1         -0.9598    1.9054    0.0260 H         1 <0>         0.1219
     34 H2          1.1508    3.1682    0.0077 H         1 <0>         0.1334
     35 H3          3.3358   -0.5219   -0.0330 H         1 <0>         0.1293
     36 H4          1.2138   -1.7656   -0.0191 H         1 <0>         0.1229
     37 H5         -1.1489   -1.7256    0.5176 H         1 <0>         0.0701
     38 H6         -2.0557   -0.1941    0.5345 H         1 <0>         0.0709
     39 H7         -1.8929   -0.0704   -1.9367 H         1 <0>         0.0755
     40 H8         -0.9861   -1.6019   -1.9536 H         1 <0>         0.0720
     41 H9         -3.8031   -1.2665   -0.8269 H         1 <0>         0.0791
     42 H10        -3.8999   -0.9999   -3.2333 H         1 <0>         0.0814
     43 H11        -2.7647   -2.3435   -3.4823 H         1 <0>         0.0692
     44 H12        -8.0455   -6.1542   -2.4481 H         1 <0>         0.4088
     45 H13        -8.4844   -5.4809   -3.9234 H         1 <0>         0.4303
     46 H14        -4.4017   -4.3875   -0.0045 H         1 <0>         0.4021
     47 H15        -2.1277   -3.7533   -1.4364 H         1 <0>         0.0733
     48 H16        -2.4439   -3.1017    0.1941 H         1 <0>         0.0951
     49 H17         4.8421    0.5294   -0.0416 H         1 <0>         0.3912
     50 H18         5.9814    3.1523    0.5501 H         1 <0>         0.0779
     51 H19         7.2537    0.4325    0.0090 H         1 <0>         0.0602
     52 H20         8.1565    1.8981    0.4621 H         1 <0>         0.0729
     53 H21         6.8522    2.0513    2.5654 H         1 <0>         0.0528
     54 H22         5.9494    0.5857    2.1123 H         1 <0>         0.0508
     55 H23        -6.1712   -5.3425   -1.2920 H         1 <0>         0.4097
@<TRIPOS>BOND
     1    1    6 ar
     2    1    2 ar
     3    1   33 1
     4    2    3 ar
     5    2   34 1
     6    3    4 ar
     7    3   21 1
     8    4    5 ar
     9    4   35 1
    10    5    6 ar
    11    5   36 1
    12    6    7 1
    13    7    8 1
    14    7   37 1
    15    7   38 1
    16    8    9 1
    17    8   39 1
    18    8   40 1
    19    9   20 1
    20    9   10 1
    21    9   41 1
    22   10   11 1
    23   10   42 1
    24   10   43 1
    25   11   16 1
    26   11   12 2
    27   12   13 1
    28   12   19 1
    29   13   14 1
    30   13   55 1
    31   14   15 2
    32   14   18 1
    33   15   16 1
    34   16   17 2
    35   18   44 1
    36   18   45 1
    37   19   20 1
    38   19   46 1
    39   20   47 1
    40   20   48 1
    41   21   22 2
    42   21   23 am
    43   23   24 1
    44   23   49 1
    45   24   25 1
    46   24   30 1
    47   24   50 1
    48   25   26 1
    49   25   51 1
    50   25   52 1
    51   26   27 1
    52   26   53 1
    53   26   54 1
    54   27   28 2
    55   27   29 1
    56   30   31 2
    57   30   32 1
@<TRIPOS>MOLECULE
CHEMBL320977
   72    75     0     0     0
SMALL
USER_CHARGES

@<TRIPOS>ATOM
      1 C1         -0.0127    1.0858    0.0080 C.3       1 <0>        -0.1138
      2 C2         -0.7416    1.5850   -1.2129 C.2       1 <0>         0.3923
      3 N1         -1.2185    0.7107   -2.0459 N.2       1 <0>        -0.5162
      4 C3         -1.8861    1.0857   -3.1657 C.ar      1 <0>         0.1573
      5 C4         -2.3988    0.1458   -4.0622 C.ar      1 <0>        -0.1052
      6 C5         -3.0695    0.5713   -5.1866 C.ar      1 <0>        -0.0538
      7 C6         -3.2433    1.9255   -5.4417 C.ar      1 <0>        -0.1254
      8 C7         -2.7463    2.8716   -4.5724 C.ar      1 <0>        -0.0277
      9 C8         -2.0647    2.4620   -3.4282 C.ar      1 <0>        -0.2017
     10 C9         -1.5124    3.4258   -2.4648 C.2       1 <0>         0.5523
     11 N2         -0.8708    2.9268   -1.3826 N.am      1 <0>        -0.6543
     12 O1         -1.6315    4.6256   -2.6317 O.2       1 <0>        -0.5138
     13 C10        -3.9816    2.3636   -6.6802 C.3       1 <0>         0.1637
     14 N3         -5.4103    2.4850   -6.3798 N.pl3     1 <0>        -0.6142
     15 C11        -5.9528    3.7596   -5.9028 C.3       1 <0>         0.2285
     16 C12        -6.3771    4.5737   -7.0534 C.1       1 <0>        -0.2084
     17 C13        -6.7155    5.2230   -7.9711 C.1       1 <0>        -0.1856
     18 C14        -6.2515    1.3907   -6.5475 C.ar      1 <0>         0.2311
     19 C15        -5.7335    0.1786   -6.9955 C.ar      1 <0>        -0.2066
     20 C16        -6.5634   -0.9063   -7.1624 C.ar      1 <0>        -0.0143
     21 C17        -7.9280   -0.7904   -6.8816 C.ar      1 <0>        -0.1703
     22 C18        -8.4450    0.4280   -6.4319 C.ar      1 <0>        -0.0368
     23 C19        -7.6090    1.5077   -6.2616 C.ar      1 <0>        -0.1998
     24 C20        -8.8205   -1.9514   -7.0600 C.2       1 <0>         0.5598
     25 O2         -8.3695   -3.0105   -7.4516 O.2       1 <0>        -0.5510
     26 N4        -10.1358   -1.8381   -6.7888 N.am      1 <0>        -0.6916
     27 C21       -11.0222   -2.9910   -6.9660 C.3       1 <0>         0.0757
     28 H1        -10.6882   -3.5780   -7.8215 H         1 <0>         0.0842
     29 C22       -12.4516   -2.5028   -7.2091 C.3       1 <0>        -0.0916
     30 C23       -12.5113   -1.7391   -8.5336 C.3       1 <0>        -0.1377
     31 C24       -13.9193   -1.2582   -8.7731 C.2       1 <0>         0.5133
     32 O3        -14.7893   -1.5022   -7.9642 O.2       1 <0>        -0.5328
     33 N5        -14.2117   -0.5569   -9.8863 N.am      1 <0>        -0.7340
     34 C25       -15.5804   -0.0894  -10.1192 C.3       1 <0>         0.1595
     35 C26       -15.6392    0.6628  -11.4237 C.ar      1 <0>        -0.1052
     36 C27       -15.4106    2.0259  -11.4465 C.ar      1 <0>        -0.1012
     37 C28       -15.4645    2.7159  -12.6431 C.ar      1 <0>        -0.1226
     38 C29       -15.7466    2.0427  -13.8170 C.ar      1 <0>        -0.1152
     39 C30       -15.9744    0.6794  -13.7943 C.ar      1 <0>        -0.1222
     40 C31       -15.9162   -0.0113  -12.5983 C.ar      1 <0>        -0.1009
     41 C32       -10.9877   -3.8464   -5.7257 C.2       1 <0>         0.4923
     42 O4        -10.4373   -3.4368   -4.7178 O.co2     1 <0>        -0.6858
     43 O5        -11.5101   -4.9480   -5.7302 O.co2     1 <0>        -0.6965
     44 H2          0.0021   -0.0041    0.0020 H         1 <0>         0.1059
     45 H3          1.0099    1.4631    0.0003 H         1 <0>         0.0924
     46 H4         -0.5229    1.4373    0.9048 H         1 <0>         0.0931
     47 H5         -2.2695   -0.9098   -3.8746 H         1 <0>         0.1433
     48 H6         -3.4651   -0.1569   -5.8791 H         1 <0>         0.1395
     49 H7         -2.8845    3.9233   -4.7760 H         1 <0>         0.1352
     50 H8         -0.4967    3.5327   -0.7240 H         1 <0>         0.4180
     51 H9         -3.5965    3.3283   -7.0106 H         1 <0>         0.0869
     52 H10        -3.8377    1.6254   -7.4692 H         1 <0>         0.0929
     53 H11        -6.8094    3.5705   -5.2559 H         1 <0>         0.1026
     54 H12        -5.1855    4.2941   -5.3427 H         1 <0>         0.0970
     55 H13        -7.0181    5.8037   -8.7919 H         1 <0>         0.2157
     56 H14        -4.6793    0.0898   -7.2126 H         1 <0>         0.1257
     57 H15        -6.1610   -1.8463   -7.5103 H         1 <0>         0.1349
     58 H16        -9.4989    0.5208   -6.2145 H         1 <0>         0.1245
     59 H17        -8.0070    2.4480   -5.9096 H         1 <0>         0.1236
     60 H18       -10.4956   -0.9932   -6.4765 H         1 <0>         0.3879
     61 H19       -13.1254   -3.3585   -7.2524 H         1 <0>         0.0884
     62 H20       -12.7537   -1.8433   -6.3955 H         1 <0>         0.0687
     63 H21       -11.8375   -0.8834   -8.4903 H         1 <0>         0.0900
     64 H22       -12.2093   -2.3986   -9.3472 H         1 <0>         0.0935
     65 H23       -13.5158   -0.3617  -10.5333 H         1 <0>         0.4005
     66 H24       -16.2542   -0.9451  -10.1625 H         1 <0>         0.0749
     67 H25       -15.8824    0.5701   -9.3056 H         1 <0>         0.0745
     68 H26       -15.1902    2.5519  -10.5293 H         1 <0>         0.1242
     69 H27       -15.2866    3.7810  -12.6608 H         1 <0>         0.1230
     70 H28       -15.7895    2.5819  -14.7518 H         1 <0>         0.1217
     71 H29       -16.1951    0.1535  -14.7115 H         1 <0>         0.1233
     72 H30       -16.0905   -1.0770  -12.5811 H         1 <0>         0.1247
@<TRIPOS>BOND
     1    1   44 1
     2    1   45 1
     3    1   46 1
     4    1    2 1
     5    2    3 2
     6    2   11 1
     7    3    4 1
     8    4    9 ar
     9    4    5 ar
    10    5    6 ar
    11    5   47 1
    12    6    7 ar
    13    6   48 1
    14    7    8 ar
    15    7   13 1
    16    8    9 ar
    17    8   49 1
    18    9   10 1
    19   10   12 2
    20   10   11 am
    21   11   50 1
    22   13   14 1
    23   13   51 1
    24   13   52 1
    25   14   15 1
    26   14   18 1
    27   15   16 1
    28   15   53 1
    29   15   54 1
    30   16   17 3
    31   17   55 1
    32   18   23 ar
    33   18   19 ar
    34   19   20 ar
    35   19   56 1
    36   20   21 ar
    37   20   57 1
    38   21   22 ar
    39   21   24 1
    40   22   23 ar
    41   22   58 1
    42   23   59 1
    43   24   25 2
    44   24   26 am
    45   26   27 1
    46   26   60 1
    47   27   28 1
    48   27   29 1
    49   27   41 1
    50   29   30 1
    51   29   61 1
    52   29   62 1
    53   30   31 1
    54   30   63 1
    55   30   64 1
    56   31   32 2
    57   31   33 am
    58   33   34 1
    59   33   65 1
    60   34   35 1
    61   34   66 1
    62   34   67 1
    63   35   40 ar
    64   35   36 ar
    65   36   37 ar
    66   36   68 1
    67   37   38 ar
    68   37   69 1
    69   38   39 ar
    70   38   70 1
    71   39   40 ar
    72   39   71 1
    73   40   72 1
    74   41   42 2
    75   41   43 1
@<TRIPOS>MOLECULE
CHEMBL338644
   69    72     0     0     0
SMALL
USER_CHARGES

@<TRIPOS>ATOM
      1 C1         -3.0009   -0.8810   -1.3772 C.3       1 <0>        -0.1230
      2 C2         -2.3070    0.3696   -1.8521 C.ar      1 <0>        -0.0313
      3 C3         -1.6097    0.3513   -3.0394 C.ar      1 <0>        -0.1118
      4 C4         -0.9665    1.5088   -3.4814 C.ar      1 <0>         0.1603
      5 C5         -1.0419    2.6838   -2.7006 C.ar      1 <0>        -0.2028
      6 C6         -1.7525    2.6812   -1.5025 C.ar      1 <0>        -0.0175
      7 C7         -2.3834    1.5276   -1.0898 C.ar      1 <0>        -0.1331
      8 C8         -3.1585    1.5215    0.2025 C.3       1 <0>         0.1681
      9 N1         -3.0305    2.8269    0.8549 N.pl3     1 <0>        -0.6162
     10 C9         -3.9908    3.8923    0.5564 C.3       1 <0>         0.2272
     11 C10        -5.1223    3.8098    1.4943 C.1       1 <0>        -0.2096
     12 C11        -6.0248    3.7441    2.2423 C.1       1 <0>        -0.1832
     13 C12        -1.9976    3.0548    1.7575 C.ar      1 <0>         0.2532
     14 C13        -1.0184    2.0833    1.9523 C.ar      1 <0>        -0.2044
     15 C14        -0.0009    2.2994    2.8367 C.ar      1 <0>        -0.0103
     16 C15         0.0632    3.4995    3.5519 C.ar      1 <0>        -0.2056
     17 C16        -0.9193    4.4788    3.3584 C.ar      1 <0>         0.2032
     18 C17        -1.9417    4.2544    2.4590 C.ar      1 <0>        -0.2408
     19 F1         -0.8636    5.6405    4.0459 F         1 <0>        -0.1137
     20 C18         1.1611    3.7328    4.5069 C.2       1 <0>         0.5542
     21 O1          1.2151    4.7769    5.1280 O.2       1 <0>        -0.5392
     22 N2          2.1052    2.7889    4.6920 N.am      1 <0>        -0.6867
     23 C19         3.1966    3.0208    5.6414 C.3       1 <0>         0.0783
     24 C20         4.4065    2.1724    5.2447 C.3       1 <0>        -0.1078
     25 C21         4.9398    2.6461    3.8912 C.3       1 <0>        -0.1105
     26 C22         6.1497    1.7977    3.4946 C.3       1 <0>        -0.1001
     27 C23         6.6831    2.2714    2.1411 C.3       1 <0>        -0.0915
     28 S1          8.1176    1.2656    1.6708 S.3       1 <0>        -0.0561
     29 C24         8.6088    1.9258    0.1128 C.2       1 <0>         0.0544
     30 N3          9.6275    1.5142   -0.6421 N.2       1 <0>        -0.3624
     31 N4          9.6502    2.2528   -1.6985 N.2       1 <0>        -0.1943
     32 N5          8.6908    3.1086   -1.6384 N.2       1 <0>        -0.1926
     33 N6          8.0312    2.9311   -0.5450 N.2       1 <0>        -0.3788
     34 C25         2.7467    2.6371    7.0275 C.2       1 <0>         0.4942
     35 O2          1.9195    1.7540    7.1773 O.co2     1 <0>        -0.6940
     36 O3          3.2098    3.2098    7.9991 O.co2     1 <0>        -0.6971
     37 C26        -0.3530    3.8856   -3.1940 C.2       1 <0>         0.5491
     38 N7          0.3105    3.7850   -4.3693 N.am      1 <0>        -0.6536
     39 C27         0.3296    2.6121   -5.0548 C.2       1 <0>         0.3987
     40 N8         -0.2684    1.5353   -4.6443 N.2       1 <0>        -0.5250
     41 C28         1.0839    2.5582   -6.3583 C.3       1 <0>        -0.1124
     42 O4         -0.3789    4.9304   -2.5699 O.2       1 <0>        -0.5043
     43 H1         -4.0506   -0.8471   -1.6690 H         1 <0>         0.0772
     44 H2         -2.5266   -1.7530   -1.8274 H         1 <0>         0.0734
     45 H3         -2.9275   -0.9474   -0.2917 H         1 <0>         0.0750
     46 H4         -1.5604   -0.5544   -3.6257 H         1 <0>         0.1392
     47 H5         -1.8119    3.5778   -0.9034 H         1 <0>         0.1412
     48 H6         -4.2095    1.3205   -0.0051 H         1 <0>         0.0920
     49 H7         -2.7633    0.7467    0.8595 H         1 <0>         0.0981
     50 H8         -3.5025    4.8612    0.6605 H         1 <0>         0.1038
     51 H9         -4.3557    3.7770   -0.4642 H         1 <0>         0.1002
     52 H10        -6.8320    3.6853    2.9112 H         1 <0>         0.2160
     53 H11        -1.0645    1.1553    1.4018 H         1 <0>         0.1313
     54 H12         0.7552    1.5425    2.9843 H         1 <0>         0.1366
     55 H13        -2.6996    5.0078    2.3029 H         1 <0>         0.1365
     56 H14         2.0620    1.9561    4.1966 H         1 <0>         0.3896
     57 H15         3.4721    4.0753    5.6277 H         1 <0>         0.0828
     58 H16         5.1862    2.2765    5.9992 H         1 <0>         0.0768
     59 H17         4.1086    1.1264    5.1720 H         1 <0>         0.0645
     60 H18         4.1600    2.5420    3.1368 H         1 <0>         0.0607
     61 H19         5.2377    3.6921    3.9640 H         1 <0>         0.0634
     62 H20         6.9295    1.9018    4.2490 H         1 <0>         0.0703
     63 H21         5.8519    0.7517    3.4218 H         1 <0>         0.0689
     64 H22         5.9033    2.1673    1.3866 H         1 <0>         0.0804
     65 H23         6.9810    3.3174    2.2138 H         1 <0>         0.0815
     66 H24         2.1163    2.2645   -6.1687 H         1 <0>         0.1018
     67 H25         0.6146    1.8299   -7.0198 H         1 <0>         0.1026
     68 H26         1.0664    3.5410   -6.8292 H         1 <0>         0.0857
     69 H27         0.7766    4.5574   -4.7257 H         1 <0>         0.4191
@<TRIPOS>BOND
     1    1   43 1
     2    1   44 1
     3    1   45 1
     4    1    2 1
     5    2    7 ar
     6    2    3 ar
     7    3   46 1
     8    3    4 ar
     9    4    5 ar
    10    4   40 1
    11    5   37 1
    12    5    6 ar
    13    6   47 1
    14    6    7 ar
    15    7    8 1
    16    8    9 1
    17    8   48 1
    18    8   49 1
    19    9   10 1
    20    9   13 1
    21   10   11 1
    22   10   50 1
    23   10   51 1
    24   11   12 3
    25   12   52 1
    26   13   18 ar
    27   13   14 ar
    28   14   15 ar
    29   14   53 1
    30   15   16 ar
    31   15   54 1
    32   16   17 ar
    33   16   20 1
    34   17   18 ar
    35   17   19 1
    36   18   55 1
    37   20   21 2
    38   20   22 am
    39   22   23 1
    40   22   56 1
    41   23   24 1
    42   23   34 1
    43   23   57 1
    44   24   25 1
    45   24   58 1
    46   24   59 1
    47   25   26 1
    48   25   60 1
    49   25   61 1
    50   26   27 1
    51   26   62 1
    52   26   63 1
    53   27   28 1
    54   27   64 1
    55   27   65 1
    56   28   29 1
    57   29   30 2
    58   29   33 1
    59   30   31 1
    60   31   32 2
    61   32   33 1
    62   34   35 2
    63   34   36 1
    64   37   42 2
    65   37   38 am
    66   38   39 1
    67   38   69 1
    68   39   40 2
    69   39   41 1
    70   41   66 1
    71   41   67 1
    72   41   68 1
@<TRIPOS>MOLECULE
CHEMBL338644__1
   69    72     0     0     0
SMALL
USER_CHARGES

@<TRIPOS>ATOM
      1 C1         -3.0009   -0.8810   -1.3772 C.3       1 <0>        -0.1244
      2 C2         -2.3070    0.3696   -1.8521 C.ar      1 <0>        -0.0301
      3 C3         -1.6097    0.3513   -3.0394 C.ar      1 <0>        -0.1114
      4 C4         -0.9665    1.5088   -3.4814 C.ar      1 <0>         0.1566
      5 C5         -1.0419    2.6838   -2.7006 C.ar      1 <0>        -0.2019
      6 C6         -1.7525    2.6812   -1.5025 C.ar      1 <0>        -0.0178
      7 C7         -2.3834    1.5276   -1.0898 C.ar      1 <0>        -0.1296
      8 C8         -3.1585    1.5215    0.2025 C.3       1 <0>         0.1667
      9 N1         -3.0305    2.8269    0.8549 N.pl3     1 <0>        -0.6166
     10 C9         -3.9908    3.8923    0.5564 C.3       1 <0>         0.2279
     11 C10        -5.1223    3.8098    1.4943 C.1       1 <0>        -0.2118
     12 C11        -6.0248    3.7441    2.2423 C.1       1 <0>        -0.1809
     13 C12        -1.9976    3.0548    1.7575 C.ar      1 <0>         0.2519
     14 C13        -1.0184    2.0833    1.9523 C.ar      1 <0>        -0.2045
     15 C14        -0.0009    2.2994    2.8367 C.ar      1 <0>        -0.0112
     16 C15         0.0632    3.4995    3.5519 C.ar      1 <0>        -0.2027
     17 C16        -0.9193    4.4788    3.3584 C.ar      1 <0>         0.2028
     18 C17        -1.9417    4.2544    2.4590 C.ar      1 <0>        -0.2403
     19 F1         -0.8636    5.6405    4.0459 F         1 <0>        -0.1137
     20 C18         1.1611    3.7328    4.5069 C.2       1 <0>         0.5608
     21 O1          1.2151    4.7769    5.1280 O.2       1 <0>        -0.5405
     22 N2          2.1052    2.7889    4.6920 N.am      1 <0>        -0.6870
     23 C19         3.1966    3.0208    5.6414 C.3       1 <0>         0.0774
     24 C20         3.7369    1.6774    6.1354 C.3       1 <0>        -0.1060
     25 C21         2.6515    0.9541    6.9352 C.3       1 <0>        -0.1107
     26 C22         3.1919   -0.3893    7.4292 C.3       1 <0>        -0.1002
     27 C23         2.1065   -1.1126    8.2290 C.3       1 <0>        -0.0914
     28 S1          2.7472   -2.7054    8.8147 S.3       1 <0>        -0.0564
     29 C24         1.3978   -3.4062    9.7052 C.2       1 <0>         0.0542
     30 N3          1.3801   -4.5841   10.3290 N.2       1 <0>        -0.3626
     31 N4          0.2122   -4.7259   10.8563 N.2       1 <0>        -0.1943
     32 N5         -0.5020   -3.6888   10.5902 N.2       1 <0>        -0.1923
     33 N6          0.1963   -2.8599    9.8921 N.2       1 <0>        -0.3788
     34 C25         4.3011    3.7865    4.9597 C.2       1 <0>         0.4917
     35 O2          4.1873    4.1086    3.7893 O.co2     1 <0>        -0.6881
     36 O3          5.3087    4.0839    5.5785 O.co2     1 <0>        -0.7008
     37 C26        -0.3530    3.8856   -3.1940 C.2       1 <0>         0.5486
     38 N7          0.3105    3.7850   -4.3693 N.am      1 <0>        -0.6546
     39 C27         0.3296    2.6121   -5.0548 C.2       1 <0>         0.3937
     40 N8         -0.2684    1.5353   -4.6443 N.2       1 <0>        -0.5228
     41 C28         1.0839    2.5582   -6.3583 C.3       1 <0>        -0.1102
     42 O4         -0.3789    4.9304   -2.5699 O.2       1 <0>        -0.5023
     43 H1         -4.0506   -0.8471   -1.6690 H         1 <0>         0.0781
     44 H2         -2.5266   -1.7530   -1.8274 H         1 <0>         0.0737
     45 H3         -2.9275   -0.9474   -0.2917 H         1 <0>         0.0763
     46 H4         -1.5604   -0.5544   -3.6257 H         1 <0>         0.1392
     47 H5         -1.8119    3.5778   -0.9034 H         1 <0>         0.1420
     48 H6         -4.2095    1.3205   -0.0051 H         1 <0>         0.0929
     49 H7         -2.7633    0.7467    0.8595 H         1 <0>         0.0991
     50 H8         -3.5025    4.8612    0.6605 H         1 <0>         0.1035
     51 H9         -4.3557    3.7770   -0.4642 H         1 <0>         0.0995
     52 H10        -6.8320    3.6853    2.9112 H         1 <0>         0.2163
     53 H11        -1.0645    1.1553    1.4018 H         1 <0>         0.1307
     54 H12         0.7552    1.5425    2.9843 H         1 <0>         0.1357
     55 H13        -2.6996    5.0078    2.3029 H         1 <0>         0.1362
     56 H14         2.0620    1.9561    4.1966 H         1 <0>         0.3874
     57 H15         2.8247    3.5967    6.4889 H         1 <0>         0.0831
     58 H16         4.0268    1.0660    5.2808 H         1 <0>         0.0592
     59 H17         4.6053    1.8469    6.7720 H         1 <0>         0.0832
     60 H18         2.3617    1.5655    7.7898 H         1 <0>         0.0629
     61 H19         1.7832    0.7845    6.2986 H         1 <0>         0.0600
     62 H20         3.4818   -1.0008    6.5747 H         1 <0>         0.0683
     63 H21         4.0602   -0.2198    8.0659 H         1 <0>         0.0705
     64 H22         1.8167   -0.5012    9.0836 H         1 <0>         0.0815
     65 H23         1.2382   -1.2822    7.5924 H         1 <0>         0.0807
     66 H24         2.1163    2.2645   -6.1687 H         1 <0>         0.0987
     67 H25         0.6146    1.8299   -7.0198 H         1 <0>         0.1023
     68 H26         1.0664    3.5410   -6.8292 H         1 <0>         0.0848
     69 H27         0.7766    4.5574   -4.7257 H         1 <0>         0.4176
@<TRIPOS>BOND
     1    1   43 1
     2    1   44 1
     3    1   45 1
     4    1    2 1
     5    2    7 ar
     6    2    3 ar
     7    3   46 1
     8    3    4 ar
     9    4    5 ar
    10    4   40 1
    11    5   37 1
    12    5    6 ar
    13    6   47 1
    14    6    7 ar
    15    7    8 1
    16    8    9 1
    17    8   48 1
    18    8   49 1
    19    9   10 1
    20    9   13 1
    21   10   11 1
    22   10   50 1
    23   10   51 1
    24   11   12 3
    25   12   52 1
    26   13   18 ar
    27   13   14 ar
    28   14   15 ar
    29   14   53 1
    30   15   16 ar
    31   15   54 1
    32   16   17 ar
    33   16   20 1
    34   17   18 ar
    35   17   19 1
    36   18   55 1
    37   20   21 2
    38   20   22 am
    39   22   23 1
    40   22   56 1
    41   23   24 1
    42   23   34 1
    43   23   57 1
    44   24   25 1
    45   24   58 1
    46   24   59 1
    47   25   26 1
    48   25   60 1
    49   25   61 1
    50   26   27 1
    51   26   62 1
    52   26   63 1
    53   27   28 1
    54   27   64 1
    55   27   65 1
    56   28   29 1
    57   29   30 2
    58   29   33 1
    59   30   31 1
    60   31   32 2
    61   32   33 1
    62   34   35 2
    63   34   36 1
    64   37   42 2
    65   37   38 am
    66   38   39 1
    67   38   69 1
    68   39   40 2
    69   39   41 1
    70   41   66 1
    71   41   67 1
    72   41   68 1
@<TRIPOS>MOLECULE
CHEMBL336487
   49    51     0     0     0
SMALL
USER_CHARGES

@<TRIPOS>ATOM
      1 C1         -1.3882   -0.6665   -2.5993 C.3       1 <0>        -0.0866
      2 C2         -0.5989   -0.7342   -1.3173 C.2       1 <0>         0.2701
      3 C3         -1.1979   -0.7516    0.0296 C.2       1 <0>        -0.6180
      4 C4         -0.1001   -1.3774    0.8993 C.3       1 <0>        -0.0739
      5 C5          1.1423   -0.8480    0.1405 C.3       1 <0>         0.3037
      6 N1          0.6930   -0.7903   -1.2558 N.2       1 <0>        -0.6574
      7 N2          2.2500   -1.7842    0.2982 N.pl3     1 <0>        -0.7340
      8 C6          2.0350   -3.1233    0.1618 C.2       1 <0>         0.6973
      9 N3          0.8340   -3.6248    0.3970 N.2       1 <0>        -0.7026
     10 C7         -0.1945   -2.8699    0.7390 C.2       1 <0>         0.5325
     11 O1         -1.2675   -3.4066    0.9337 O.2       1 <0>        -0.5169
     12 N4          3.0551   -3.9432   -0.2164 N.pl3     1 <0>        -0.8323
     13 S1         -2.7005   -0.2207    0.4941 S.3       1 <0>         0.0996
     14 C8         -2.4682    1.4982    0.8041 C.ar      1 <0>        -0.1206
     15 C9         -1.2429    2.1004    0.5123 C.ar      1 <0>        -0.1379
     16 C10        -1.0607    3.4430    0.7541 C.ar      1 <0>        -0.0559
     17 C11        -2.1025    4.2034    1.2918 C.ar      1 <0>        -0.1561
     18 C12        -3.3287    3.6000    1.5836 C.ar      1 <0>        -0.0746
     19 C13        -3.5113    2.2585    1.3359 C.ar      1 <0>        -0.1365
     20 C14        -1.9076    5.6446    1.5521 C.2       1 <0>         0.5541
     21 O2         -0.8406    6.1692    1.2985 O.2       1 <0>        -0.5672
     22 N5         -2.9126    6.3778    2.0707 N.am      1 <0>        -0.6842
     23 C15        -2.7193    7.8068    2.3288 C.3       1 <0>         0.0756
     24 C16        -3.6806    8.2610    3.4291 C.3       1 <0>        -0.0802
     25 C17        -3.3215    7.5605    4.7411 C.3       1 <0>        -0.1778
     26 C18        -4.2683    8.0078    5.8248 C.2       1 <0>         0.4929
     27 O3         -5.1487    8.8123    5.5713 O.co2     1 <0>        -0.7007
     28 O4         -4.1539    7.5652    6.9551 O.co2     1 <0>        -0.7215
     29 C19        -2.9937    8.5865    1.0687 C.2       1 <0>         0.4989
     30 O5         -3.7994    8.1669    0.2555 O.co2     1 <0>        -0.6976
     31 O6         -2.4101    9.6369    0.8625 O.co2     1 <0>        -0.7090
     32 H1         -0.7036   -0.5845   -3.4435 H         1 <0>         0.0485
     33 H2         -1.9884   -1.5702   -2.7046 H         1 <0>         0.0646
     34 H3         -2.0435    0.2043   -2.5770 H         1 <0>         0.0698
     35 H4         -0.1460   -1.0611    1.9414 H         1 <0>         0.0751
     36 H5          1.4139    0.1448    0.4991 H         1 <0>         0.0848
     37 H6          3.9354   -3.5743   -0.3889 H         1 <0>         0.4021
     38 H7          3.1393   -1.4538    0.5004 H         1 <0>         0.3889
     39 H8         -0.4377    1.5126    0.0971 H         1 <0>         0.1235
     40 H9         -0.1127    3.9087    0.5287 H         1 <0>         0.1159
     41 H10        -4.1342    4.1870    1.9995 H         1 <0>         0.1161
     42 H11        -4.4603    1.7930    1.5572 H         1 <0>         0.1149
     43 H12        -3.7639    5.9592    2.2730 H         1 <0>         0.3908
     44 H13        -1.6921    7.9826    2.6484 H         1 <0>         0.0738
     45 H14        -3.5998    9.3401    3.5595 H         1 <0>         0.0683
     46 H15        -4.7019    8.0044    3.1479 H         1 <0>         0.0589
     47 H16        -3.4022    6.4813    4.6107 H         1 <0>         0.0547
     48 H17        -2.3001    7.8171    5.0223 H         1 <0>         0.0515
     49 H18         2.9010   -4.8960   -0.3132 H         1 <0>         0.4147
@<TRIPOS>BOND
     1    1    2 1
     2    1   32 1
     3    1   33 1
     4    1   34 1
     5    2    6 2
     6    2    3 1
     7    3   13 1
     8    3    4 1
     9    4   10 1
    10    4    5 1
    11    4   35 1
    12    5    6 1
    13    5   36 1
    14    5    7 1
    15    7   38 1
    16    7    8 1
    17    8   12 1
    18    8    9 2
    19    9   10 1
    20   10   11 2
    21   12   37 1
    22   12   49 1
    23   13   14 1
    24   14   19 ar
    25   14   15 ar
    26   15   16 ar
    27   15   39 1
    28   16   17 ar
    29   16   40 1
    30   17   18 ar
    31   17   20 1
    32   18   19 ar
    33   18   41 1
    34   19   42 1
    35   20   21 2
    36   20   22 am
    37   22   23 1
    38   22   43 1
    39   23   24 1
    40   23   29 1
    41   23   44 1
    42   24   25 1
    43   24   45 1
    44   24   46 1
    45   25   26 1
    46   25   47 1
    47   25   48 1
    48   26   27 2
    49   26   28 1
    50   29   30 2
    51   29   31 1
@<TRIPOS>MOLECULE
CHEMBL336487__1
   49    51     0     0     0
SMALL
NO_CHARGES

@<TRIPOS>ATOM
      1 C1         -1.9819   -2.4000    0.3752 C.3       1 <0>        -0.1156
      2 C2         -0.5269   -2.1678    0.6915 C.2       1 <0>         0.1789
      3 C3          0.0547   -0.8464    1.1592 C.3       1 <0>        -0.2520
      4 C4          1.3804   -1.2859    1.8497 C.3       1 <0>        -0.1536
      5 C5          1.7013   -2.5261    0.9785 C.3       1 <0>         0.2991
      6 N1          0.3863   -3.0578    0.6081 N.2       1 <0>        -0.4493
      7 N2          2.4588   -3.4941    1.7649 N.pl3     1 <0>        -0.7153
      8 C6          2.0722   -3.7866    3.0390 C.2       1 <0>         0.5378
      9 N3          1.3903   -2.8972    3.7412 N.2       1 <0>        -0.4336
     10 C7          1.0374   -1.7240    3.2470 C.2       1 <0>         0.3775
     11 O1          0.4061   -0.9633    3.9544 O.2       1 <0>        -0.2824
     12 N4          2.3873   -4.9931    3.5877 N.2       1 <0>        -0.5621
     13 S1         -1.0534   -0.0395    2.3472 S.3       1 <0>         0.7302
     14 C8         -0.3471    1.5592    2.5711 C.ar      1 <0>        -0.2676
     15 C9          0.7381    1.9549    1.7926 C.ar      1 <0>        -0.0638
     16 C10         1.2894    3.1983    1.9642 C.ar      1 <0>        -0.0567
     17 C11         0.7613    4.0696    2.9220 C.ar      1 <0>        -0.0157
     18 C12        -0.3281    3.6696    3.7021 C.ar      1 <0>        -0.0865
     19 C13        -0.8787    2.4270    3.5223 C.ar      1 <0>        -0.0070
     20 C14         1.3525    5.4076    3.1094 C.2       1 <0>         0.5360
     21 O2          2.3002    5.7541    2.4307 O.2       1 <0>        -0.4893
     22 N5          0.8425    6.2464    4.0329 N.am      1 <0>        -0.6579
     23 C15         1.4298    7.5756    4.2190 C.3       1 <0>         0.1307
     24 C16         1.1424    8.0657    5.6396 C.3       1 <0>        -0.1069
     25 C17         1.8585    7.1623    6.6455 C.3       1 <0>        -0.1289
     26 C18         1.5754    7.6451    8.0447 C.2       1 <0>         0.4935
     27 O3          0.8666    8.6213    8.2210 O.co2     1 <0>        -0.5602
     28 O4          2.0552    7.0596    9.0004 O.co2     1 <0>        -0.5604
     29 C19         0.8271    8.5347    3.2251 C.2       1 <0>         0.4997
     30 O5         -0.3151    8.3681    2.8326 O.co2     1 <0>        -0.5352
     31 O6          1.4818    9.4773    2.8134 O.co2     1 <0>        -0.5202
     32 H1         -2.1827   -2.0995   -0.6532 H         1 <0>         0.1135
     33 H2          0.2583   -0.1916    0.3119 H         1 <0>         0.1998
     34 H3         -2.2159   -3.4576    0.4969 H         1 <0>         0.1112
     35 H4          2.1536   -0.5180    1.8250 H         1 <0>         0.1739
     36 H5          2.2677   -2.2316    0.0949 H         1 <0>         0.1608
     37 H6         -2.5996   -1.8109    1.0530 H         1 <0>         0.0846
     38 H7          2.1118   -5.2003    4.4944 H         1 <0>         0.3715
     39 H8          1.1458    1.2814    1.0532 H         1 <0>         0.1482
     40 H9          2.1310    3.5044    1.3606 H         1 <0>         0.1697
     41 H10        -0.7380    4.3405    4.4426 H         1 <0>         0.1642
     42 H11        -1.7229    2.1192    4.1214 H         1 <0>         0.1655
     43 H12         0.0866    5.9700    4.5743 H         1 <0>         0.4115
     44 H13         2.5074    7.5216    4.0644 H         1 <0>         0.1385
     45 H14         1.5012    9.0890    5.7504 H         1 <0>         0.1127
     46 H15         0.0685    8.0353    5.8241 H         1 <0>         0.0959
     47 H16         1.4997    6.1391    6.5346 H         1 <0>         0.0857
     48 H17         2.9324    7.1928    6.4609 H         1 <0>         0.0976
     49 H18         3.2364   -3.9291    1.3814 H         1 <0>         0.4318
@<TRIPOS>BOND
     1    1    2 1
     2    1   32 1
     3    1   34 1
     4    1   37 1
     5    2    3 1
     6    2    6 2
     7    3    4 1
     8    3   13 1
     9    3   33 1
    10    4   10 1
    11    4    5 1
    12    4   35 1
    13    5    7 1
    14    5   36 1
    15    5    6 1
    16    7    8 1
    17    7   49 1
    18    8    9 2
    19    8   12 1
    20    9   10 1
    21   10   11 2
    22   12   38 1
    23   13   14 1
    24   14   19 ar
    25   14   15 ar
    26   15   16 ar
    27   15   39 1
    28   16   17 ar
    29   16   40 1
    30   17   18 ar
    31   17   20 1
    32   18   19 ar
    33   18   41 1
    34   19   42 1
    35   20   21 2
    36   20   22 am
    37   22   23 1
    38   22   43 1
    39   23   24 1
    40   23   29 1
    41   23   44 1
    42   24   25 1
    43   24   45 1
    44   24   46 1
    45   25   26 1
    46   25   47 1
    47   25   48 1
    48   26   27 2
    49   26   28 1
    50   29   30 2
    51   29   31 1
@<TRIPOS>MOLECULE
CHEMBL336487__2
   50    52     0     0     0
SMALL
NO_CHARGES

@<TRIPOS>ATOM
      1 C1         -1.9819   -2.4000    0.3752 C.3       1 <0>        -0.1072
      2 C2         -0.5269   -2.1678    0.6915 C.2       1 <0>         0.2036
      3 C3          0.0547   -0.8464    1.1592 C.3       1 <0>        -0.1325
      4 C4          1.3804   -1.2859    1.8497 C.3       1 <0>        -0.1934
      5 C5          1.7013   -2.5261    0.9785 C.3       1 <0>         0.2950
      6 N1          0.3863   -3.0578    0.6081 N.2       1 <0>        -0.4942
      7 N2          2.4588   -3.4941    1.7649 N.pl3     1 <0>        -0.7349
      8 C6          2.0722   -3.7866    3.0390 C.2       1 <0>         0.7026
      9 N3          1.3903   -2.8972    3.7412 N.2       1 <0>        -0.6674
     10 C7          1.0374   -1.7240    3.2470 C.2       1 <0>         0.5021
     11 O1          0.4061   -0.9633    3.9544 O.2       1 <0>        -0.4530
     12 N4          2.3873   -4.9931    3.5877 N.pl3     1 <0>        -0.8071
     13 S1         -1.0534   -0.0395    2.3472 S.3       1 <0>         0.0774
     14 C8         -0.3471    1.5592    2.5711 C.ar      1 <0>        -0.0412
     15 C9          0.7381    1.9549    1.7926 C.ar      1 <0>        -0.1521
     16 C10         1.2894    3.1983    1.9642 C.ar      1 <0>        -0.0133
     17 C11         0.7613    4.0696    2.9220 C.ar      1 <0>        -0.1640
     18 C12        -0.3281    3.6696    3.7021 C.ar      1 <0>        -0.0508
     19 C13        -0.8787    2.4270    3.5223 C.ar      1 <0>        -0.1029
     20 C14         1.3525    5.4076    3.1094 C.2       1 <0>         0.5521
     21 O2          2.3002    5.7541    2.4307 O.2       1 <0>        -0.4684
     22 N5          0.8425    6.2464    4.0329 N.am      1 <0>        -0.5802
     23 C15         1.4298    7.5756    4.2190 C.3       1 <0>         0.1759
     24 C16         1.1424    8.0657    5.6396 C.3       1 <0>        -0.1151
     25 C17         1.8585    7.1623    6.6455 C.3       1 <0>        -0.1107
     26 C18         1.5754    7.6451    8.0447 C.2       1 <0>         0.5078
     27 O3          0.8666    8.6213    8.2210 O.co2     1 <0>        -0.5174
     28 O4          2.0552    7.0596    9.0004 O.co2     1 <0>        -0.4978
     29 C19         0.8271    8.5347    3.2251 C.2       1 <0>         0.5269
     30 O5         -0.1379    8.1976    2.5606 O.co2     1 <0>        -0.3914
     31 O6          1.3046    9.6478    3.0854 O.co2     1 <0>        -0.3787
     32 H1         -2.1827   -2.0995   -0.6532 H         1 <0>         0.0984
     33 H2          0.2583   -0.1916    0.3119 H         1 <0>         0.1364
     34 H3         -2.2159   -3.4576    0.4969 H         1 <0>         0.0923
     35 H4          2.1536   -0.5180    1.8250 H         1 <0>         0.1361
     36 H5          2.2677   -2.2316    0.0949 H         1 <0>         0.1341
     37 H6         -2.5996   -1.8109    1.0530 H         1 <0>         0.0904
     38 H7          2.8872   -5.6449    3.0718 H         1 <0>         0.4145
     39 H8          2.1118   -5.2003    4.4944 H         1 <0>         0.4294
     40 H9          1.1458    1.2814    1.0532 H         1 <0>         0.1314
     41 H10         2.1310    3.5044    1.3606 H         1 <0>         0.1453
     42 H11        -0.7380    4.3405    4.4426 H         1 <0>         0.1347
     43 H12        -1.7229    2.1192    4.1214 H         1 <0>         0.1442
     44 H13         0.0866    5.9700    4.5743 H         1 <0>         0.4319
     45 H14         2.5074    7.5216    4.0644 H         1 <0>         0.2027
     46 H15         1.5012    9.0890    5.7504 H         1 <0>         0.1424
     47 H16         0.0685    8.0353    5.8241 H         1 <0>         0.1218
     48 H17         1.4997    6.1391    6.5346 H         1 <0>         0.1100
     49 H18         2.9324    7.1928    6.4609 H         1 <0>         0.1218
     50 H19         3.2364   -3.9291    1.3814 H         1 <0>         0.4124
@<TRIPOS>BOND
     1    1    2 1
     2    1   32 1
     3    1   34 1
     4    1   37 1
     5    2    3 1
     6    2    6 2
     7    3    4 1
     8    3   13 1
     9    3   33 1
    10    4   10 1
    11    4    5 1
    12    4   35 1
    13    5    7 1
    14    5   36 1
    15    5    6 1
    16    7    8 1
    17    7   50 1
    18    8    9 2
    19    8   12 1
    20    9   10 1
    21   10   11 2
    22   12   38 1
    23   12   39 1
    24   13   14 1
    25   14   19 ar
    26   14   15 ar
    27   15   16 ar
    28   15   40 1
    29   16   17 ar
    30   16   41 1
    31   17   18 ar
    32   17   20 1
    33   18   19 ar
    34   18   42 1
    35   19   43 1
    36   20   21 2
    37   20   22 am
    38   22   23 1
    39   22   44 1
    40   23   24 1
    41   23   29 1
    42   23   45 1
    43   24   25 1
    44   24   46 1
    45   24   47 1
    46   25   26 1
    47   25   48 1
    48   25   49 1
    49   26   27 2
    50   26   28 1
    51   29   30 2
    52   29   31 1
@<TRIPOS>MOLECULE
CHEMBL336487__3
   49    51     0     0     0
SMALL
USER_CHARGES

@<TRIPOS>ATOM
      1 C1         -1.3882   -0.6665   -2.5993 C.3       1 <0>        -0.0863
      2 C2         -0.5989   -0.7342   -1.3173 C.2       1 <0>         0.2699
      3 C3         -1.1979   -0.7516    0.0296 C.2       1 <0>        -0.6176
      4 C4         -0.1001   -1.3774    0.8993 C.3       1 <0>        -0.0742
      5 C5          1.1423   -0.8480    0.1405 C.3       1 <0>         0.3037
      6 N1          0.6930   -0.7903   -1.2558 N.2       1 <0>        -0.6577
      7 N2          2.2500   -1.7842    0.2982 N.pl3     1 <0>        -0.7339
      8 C6          2.0350   -3.1233    0.1618 C.2       1 <0>         0.6972
      9 N3          0.8340   -3.6248    0.3970 N.2       1 <0>        -0.7027
     10 C7         -0.1945   -2.8699    0.7390 C.2       1 <0>         0.5327
     11 O1         -1.2675   -3.4066    0.9337 O.2       1 <0>        -0.5172
     12 N4          3.0551   -3.9432   -0.2164 N.pl3     1 <0>        -0.8323
     13 S1         -2.7005   -0.2207    0.4941 S.3       1 <0>         0.0984
     14 C8         -2.4682    1.4982    0.8041 C.ar      1 <0>        -0.1213
     15 C9         -1.2429    2.1004    0.5123 C.ar      1 <0>        -0.1376
     16 C10        -1.0607    3.4430    0.7541 C.ar      1 <0>        -0.0562
     17 C11        -2.1025    4.2034    1.2918 C.ar      1 <0>        -0.1534
     18 C12        -3.3287    3.6000    1.5836 C.ar      1 <0>        -0.0756
     19 C13        -3.5113    2.2585    1.3359 C.ar      1 <0>        -0.1366
     20 C14        -1.9076    5.6446    1.5521 C.2       1 <0>         0.5610
     21 O2         -0.8406    6.1692    1.2985 O.2       1 <0>        -0.5687
     22 N5         -2.9126    6.3778    2.0707 N.am      1 <0>        -0.6846
     23 C15        -2.7193    7.8068    2.3288 C.3       1 <0>         0.0746
     24 C16        -4.0740    8.5174    2.3039 C.3       1 <0>        -0.0782
     25 C17        -4.6664    8.4370    0.8955 C.3       1 <0>        -0.1783
     26 C18        -6.0007    9.1369    0.8710 C.2       1 <0>         0.4925
     27 O3         -6.4375    9.6523    1.8860 O.co2     1 <0>        -0.7003
     28 O4         -6.6435    9.1878   -0.1637 O.co2     1 <0>        -0.7221
     29 C19        -2.0801    7.9911    3.6811 C.2       1 <0>         0.4954
     30 O5         -1.8111    7.0188    4.3657 O.co2     1 <0>        -0.6939
     31 O6         -1.8321    9.1124    4.0904 O.co2     1 <0>        -0.7090
     32 H1         -0.7036   -0.5845   -3.4435 H         1 <0>         0.0483
     33 H2         -1.9884   -1.5702   -2.7046 H         1 <0>         0.0645
     34 H3         -2.0435    0.2043   -2.5770 H         1 <0>         0.0696
     35 H4         -0.1460   -1.0611    1.9414 H         1 <0>         0.0752
     36 H5          1.4139    0.1448    0.4991 H         1 <0>         0.0850
     37 H6          3.9354   -3.5743   -0.3889 H         1 <0>         0.4021
     38 H7          3.1393   -1.4538    0.5004 H         1 <0>         0.3889
     39 H8         -0.4377    1.5126    0.0971 H         1 <0>         0.1232
     40 H9         -0.1127    3.9087    0.5287 H         1 <0>         0.1157
     41 H10        -4.1342    4.1870    1.9995 H         1 <0>         0.1151
     42 H11        -4.4603    1.7930    1.5572 H         1 <0>         0.1144
     43 H12        -3.7639    5.9592    2.2730 H         1 <0>         0.3885
     44 H13        -2.0726    8.2306    1.5605 H         1 <0>         0.0740
     45 H14        -4.7500    8.0357    3.0104 H         1 <0>         0.0536
     46 H15        -3.9413    9.5627    2.5831 H         1 <0>         0.0749
     47 H16        -3.9904    8.9187    0.1890 H         1 <0>         0.0511
     48 H17        -4.7991    7.3917    0.6164 H         1 <0>         0.0536
     49 H18         2.9010   -4.8960   -0.3132 H         1 <0>         0.4146
@<TRIPOS>BOND
     1    1    2 1
     2    1   32 1
     3    1   33 1
     4    1   34 1
     5    2    6 2
     6    2    3 1
     7    3   13 1
     8    3    4 1
     9    4   10 1
    10    4    5 1
    11    4   35 1
    12    5    6 1
    13    5   36 1
    14    5    7 1
    15    7   38 1
    16    7    8 1
    17    8   12 1
    18    8    9 2
    19    9   10 1
    20   10   11 2
    21   12   37 1
    22   12   49 1
    23   13   14 1
    24   14   19 ar
    25   14   15 ar
    26   15   16 ar
    27   15   39 1
    28   16   17 ar
    29   16   40 1
    30   17   18 ar
    31   17   20 1
    32   18   19 ar
    33   18   41 1
    34   19   42 1
    35   20   21 2
    36   20   22 am
    37   22   23 1
    38   22   43 1
    39   23   24 1
    40   23   29 1
    41   23   44 1
    42   24   25 1
    43   24   45 1
    44   24   46 1
    45   25   26 1
    46   25   47 1
    47   25   48 1
    48   26   27 2
    49   26   28 1
    50   29   30 2
    51   29   31 1
@<TRIPOS>MOLECULE
CHEMBL336487__4
   49    51     0     0     0
SMALL
NO_CHARGES

@<TRIPOS>ATOM
      1 C1         -1.9819   -2.4000    0.3752 C.3       1 <0>        -0.1155
      2 C2         -0.5269   -2.1678    0.6915 C.2       1 <0>         0.1787
      3 C3          0.0547   -0.8464    1.1592 C.3       1 <0>        -0.2516
      4 C4          1.3804   -1.2859    1.8497 C.3       1 <0>        -0.1538
      5 C5          1.7013   -2.5261    0.9785 C.3       1 <0>         0.2992
      6 N1          0.3863   -3.0578    0.6081 N.2       1 <0>        -0.4492
      7 N2          2.4588   -3.4941    1.7649 N.pl3     1 <0>        -0.7153
      8 C6          2.0722   -3.7866    3.0390 C.2       1 <0>         0.5381
      9 N3          1.3903   -2.8972    3.7412 N.2       1 <0>        -0.4341
     10 C7          1.0374   -1.7240    3.2470 C.2       1 <0>         0.3778
     11 O1          0.4061   -0.9633    3.9544 O.2       1 <0>        -0.2820
     12 N4          2.3873   -4.9931    3.5877 N.2       1 <0>        -0.5629
     13 S1         -1.0534   -0.0395    2.3472 S.3       1 <0>         0.7294
     14 C8         -0.3471    1.5592    2.5711 C.ar      1 <0>        -0.2679
     15 C9          0.7381    1.9549    1.7926 C.ar      1 <0>        -0.0637
     16 C10         1.2894    3.1983    1.9642 C.ar      1 <0>        -0.0568
     17 C11         0.7613    4.0696    2.9220 C.ar      1 <0>        -0.0131
     18 C12        -0.3281    3.6696    3.7021 C.ar      1 <0>        -0.0873
     19 C13        -0.8787    2.4270    3.5223 C.ar      1 <0>        -0.0071
     20 C14         1.3525    5.4076    3.1094 C.2       1 <0>         0.5411
     21 O2          2.3002    5.7541    2.4307 O.2       1 <0>        -0.4902
     22 N5          0.8425    6.2464    4.0329 N.am      1 <0>        -0.6595
     23 C15         1.4298    7.5756    4.2190 C.3       1 <0>         0.1306
     24 C16         0.3785    8.5201    4.8050 C.3       1 <0>        -0.1063
     25 C17        -0.7524    8.7154    3.7930 C.3       1 <0>        -0.1297
     26 C18        -1.7879    9.6457    4.3702 C.2       1 <0>         0.4934
     27 O3         -1.6356   10.1097    5.4874 O.co2     1 <0>        -0.5588
     28 O4         -2.7780    9.9345    3.7200 O.co2     1 <0>        -0.5610
     29 C19         2.6007    7.4797    5.1628 C.2       1 <0>         0.4990
     30 O5          2.9155    6.4011    5.6361 O.co2     1 <0>        -0.5381
     31 O6          3.2333    8.4808    5.4531 O.co2     1 <0>        -0.5184
     32 H1         -2.1827   -2.0995   -0.6532 H         1 <0>         0.1134
     33 H2          0.2583   -0.1916    0.3119 H         1 <0>         0.1997
     34 H3         -2.2159   -3.4576    0.4969 H         1 <0>         0.1111
     35 H4          2.1536   -0.5180    1.8250 H         1 <0>         0.1740
     36 H5          2.2677   -2.2316    0.0949 H         1 <0>         0.1608
     37 H6         -2.5996   -1.8109    1.0530 H         1 <0>         0.0846
     38 H7          2.1118   -5.2003    4.4944 H         1 <0>         0.3713
     39 H8          1.1458    1.2814    1.0532 H         1 <0>         0.1480
     40 H9          2.1310    3.5044    1.3606 H         1 <0>         0.1695
     41 H10        -0.7380    4.3405    4.4426 H         1 <0>         0.1635
     42 H11        -1.7229    2.1192    4.1214 H         1 <0>         0.1651
     43 H12         0.0866    5.9700    4.5743 H         1 <0>         0.4098
     44 H13         1.7688    7.9609    3.2574 H         1 <0>         0.1402
     45 H14        -0.0248    8.0908    5.7221 H         1 <0>         0.0922
     46 H15         0.8383    9.4833    5.0262 H         1 <0>         0.1174
     47 H16        -0.3491    9.1447    2.8759 H         1 <0>         0.0972
     48 H17        -1.2123    7.7522    3.5718 H         1 <0>         0.0858
     49 H18         3.2364   -3.9291    1.3814 H         1 <0>         0.4318
@<TRIPOS>BOND
     1    1    2 1
     2    1   32 1
     3    1   34 1
     4    1   37 1
     5    2    3 1
     6    2    6 2
     7    3    4 1
     8    3   13 1
     9    3   33 1
    10    4   10 1
    11    4    5 1
    12    4   35 1
    13    5    7 1
    14    5   36 1
    15    5    6 1
    16    7    8 1
    17    7   49 1
    18    8    9 2
    19    8   12 1
    20    9   10 1
    21   10   11 2
    22   12   38 1
    23   13   14 1
    24   14   19 ar
    25   14   15 ar
    26   15   16 ar
    27   15   39 1
    28   16   17 ar
    29   16   40 1
    30   17   18 ar
    31   17   20 1
    32   18   19 ar
    33   18   41 1
    34   19   42 1
    35   20   21 2
    36   20   22 am
    37   22   23 1
    38   22   43 1
    39   23   24 1
    40   23   29 1
    41   23   44 1
    42   24   25 1
    43   24   45 1
    44   24   46 1
    45   25   26 1
    46   25   47 1
    47   25   48 1
    48   26   27 2
    49   26   28 1
    50   29   30 2
    51   29   31 1
@<TRIPOS>MOLECULE
CHEMBL336487__5
   50    52     0     0     0
SMALL
NO_CHARGES

@<TRIPOS>ATOM
      1 C1         -1.9819   -2.4000    0.3752 C.3       1 <0>        -0.1071
      2 C2         -0.5269   -2.1678    0.6915 C.2       1 <0>         0.2036
      3 C3          0.0547   -0.8464    1.1592 C.3       1 <0>        -0.1324
      4 C4          1.3804   -1.2859    1.8497 C.3       1 <0>        -0.1937
      5 C5          1.7013   -2.5261    0.9785 C.3       1 <0>         0.2950
      6 N1          0.3863   -3.0578    0.6081 N.2       1 <0>        -0.4941
      7 N2          2.4588   -3.4941    1.7649 N.pl3     1 <0>        -0.7349
      8 C6          2.0722   -3.7866    3.0390 C.2       1 <0>         0.7026
      9 N3          1.3903   -2.8972    3.7412 N.2       1 <0>        -0.6676
     10 C7          1.0374   -1.7240    3.2470 C.2       1 <0>         0.5021
     11 O1          0.4061   -0.9633    3.9544 O.2       1 <0>        -0.4531
     12 N4          2.3873   -4.9931    3.5877 N.pl3     1 <0>        -0.8071
     13 S1         -1.0534   -0.0395    2.3472 S.3       1 <0>         0.0773
     14 C8         -0.3471    1.5592    2.5711 C.ar      1 <0>        -0.0406
     15 C9          0.7381    1.9549    1.7926 C.ar      1 <0>        -0.1523
     16 C10         1.2894    3.1983    1.9642 C.ar      1 <0>        -0.0129
     17 C11         0.7613    4.0696    2.9220 C.ar      1 <0>        -0.1659
     18 C12        -0.3281    3.6696    3.7021 C.ar      1 <0>        -0.0504
     19 C13        -0.8787    2.4270    3.5223 C.ar      1 <0>        -0.1030
     20 C14         1.3525    5.4076    3.1094 C.2       1 <0>         0.5493
     21 O2          2.3002    5.7541    2.4307 O.2       1 <0>        -0.4666
     22 N5          0.8425    6.2464    4.0329 N.am      1 <0>        -0.5774
     23 C15         1.4298    7.5756    4.2190 C.3       1 <0>         0.1767
     24 C16         0.3785    8.5201    4.8050 C.3       1 <0>        -0.1155
     25 C17        -0.7524    8.7154    3.7930 C.3       1 <0>        -0.1108
     26 C18        -1.7879    9.6457    4.3702 C.2       1 <0>         0.5075
     27 O3         -1.6356   10.1097    5.4874 O.co2     1 <0>        -0.5209
     28 O4         -2.7780    9.9345    3.7200 O.co2     1 <0>        -0.5017
     29 C19         2.6007    7.4797    5.1628 C.2       1 <0>         0.5258
     30 O5          3.5347    8.2562    5.0563 O.co2     1 <0>        -0.3764
     31 O6          2.6141    6.6257    6.0328 O.co2     1 <0>        -0.3850
     32 H1         -2.1827   -2.0995   -0.6532 H         1 <0>         0.0985
     33 H2          0.2583   -0.1916    0.3119 H         1 <0>         0.1365
     34 H3         -2.2159   -3.4576    0.4969 H         1 <0>         0.0923
     35 H4          2.1536   -0.5180    1.8250 H         1 <0>         0.1360
     36 H5          2.2677   -2.2316    0.0949 H         1 <0>         0.1341
     37 H6         -2.5996   -1.8109    1.0530 H         1 <0>         0.0904
     38 H7          2.8872   -5.6449    3.0718 H         1 <0>         0.4145
     39 H8          2.1118   -5.2003    4.4944 H         1 <0>         0.4293
     40 H9          1.1458    1.2814    1.0532 H         1 <0>         0.1316
     41 H10         2.1310    3.5044    1.3606 H         1 <0>         0.1454
     42 H11        -0.7380    4.3405    4.4426 H         1 <0>         0.1351
     43 H12        -1.7229    2.1192    4.1214 H         1 <0>         0.1445
     44 H13         0.0866    5.9700    4.5743 H         1 <0>         0.4330
     45 H14         1.7688    7.9609    3.2574 H         1 <0>         0.2015
     46 H15        -0.0248    8.0908    5.7221 H         1 <0>         0.1234
     47 H16         0.8383    9.4833    5.0262 H         1 <0>         0.1402
     48 H17        -0.3491    9.1447    2.8759 H         1 <0>         0.1217
     49 H18        -1.2123    7.7522    3.5718 H         1 <0>         0.1089
     50 H19         3.2364   -3.9291    1.3814 H         1 <0>         0.4125
@<TRIPOS>BOND
     1    1    2 1
     2    1   32 1
     3    1   34 1
     4    1   37 1
     5    2    3 1
     6    2    6 2
     7    3    4 1
     8    3   13 1
     9    3   33 1
    10    4   10 1
    11    4    5 1
    12    4   35 1
    13    5    7 1
    14    5   36 1
    15    5    6 1
    16    7    8 1
    17    7   50 1
    18    8    9 2
    19    8   12 1
    20    9   10 1
    21   10   11 2
    22   12   38 1
    23   12   39 1
    24   13   14 1
    25   14   19 ar
    26   14   15 ar
    27   15   16 ar
    28   15   40 1
    29   16   17 ar
    30   16   41 1
    31   17   18 ar
    32   17   20 1
    33   18   19 ar
    34   18   42 1
    35   19   43 1
    36   20   21 2
    37   20   22 am
    38   22   23 1
    39   22   44 1
    40   23   24 1
    41   23   29 1
    42   23   45 1
    43   24   25 1
    44   24   46 1
    45   24   47 1
    46   25   26 1
    47   25   48 1
    48   25   49 1
    49   26   27 2
    50   26   28 1
    51   29   30 2
    52   29   31 1
@<TRIPOS>MOLECULE
CHEMBL336487__6
   49    51     0     0     0
SMALL
USER_CHARGES

@<TRIPOS>ATOM
      1 C1         -0.0139   -1.8307   -2.1701 C.3       1 <0>        -0.0879
      2 C2         -0.1394   -1.6587   -0.6783 C.2       1 <0>         0.2636
      3 C3         -1.1479   -0.7922   -0.0054 C.2       1 <0>        -0.6068
      4 C4         -0.4409   -0.4635    1.2850 C.3       1 <0>        -0.0836
      5 C5          0.1801   -1.8773    1.5256 C.3       1 <0>         0.3126
      6 N1          0.6217   -2.2563    0.2110 N.2       1 <0>        -0.6481
      7 N2          1.0534   -1.7339    2.6656 N.pl3     1 <0>        -0.7374
      8 C6          0.4076   -1.2394    3.7881 C.2       1 <0>         0.6901
      9 N3         -0.7275   -0.5642    3.6770 N.2       1 <0>        -0.7055
     10 C7         -1.2558   -0.1833    2.5021 C.2       1 <0>         0.5302
     11 O1         -2.3403    0.3613    2.4347 O.2       1 <0>        -0.4757
     12 N4          0.9464   -1.4505    5.0214 N.pl3     1 <0>        -0.8296
     13 S1         -2.6476   -0.3165   -0.5347 S.3       1 <0>         0.1019
     14 C8         -2.3604    1.2592   -1.2691 C.ar      1 <0>        -0.1091
     15 C9         -1.0593    1.7549   -1.3707 C.ar      1 <0>        -0.1379
     16 C10        -0.8342    2.9855   -1.9442 C.ar      1 <0>        -0.0550
     17 C11        -1.9084    3.7389   -2.4250 C.ar      1 <0>        -0.1581
     18 C12        -3.2105    3.2421   -2.3231 C.ar      1 <0>        -0.0727
     19 C13        -3.4336    2.0088   -1.7544 C.ar      1 <0>        -0.1386
     20 C14        -1.6677    5.0603   -3.0405 C.2       1 <0>         0.5550
     21 O2         -0.5348    5.4924   -3.1287 O.2       1 <0>        -0.5678
     22 N5         -2.7040    5.7867   -3.5041 N.am      1 <0>        -0.6846
     23 C15        -2.4652    7.0970   -4.1144 C.3       1 <0>         0.0759
     24 C16        -3.7244    7.9565   -3.9858 C.3       1 <0>        -0.0800
     25 C17        -3.9982    8.2422   -2.5078 C.3       1 <0>        -0.1782
     26 C18        -5.2384    9.0888   -2.3812 C.2       1 <0>         0.4930
     27 O3         -5.8470    9.4319   -3.3804 O.co2     1 <0>        -0.7012
     28 O4         -5.6333    9.4306   -1.2795 O.co2     1 <0>        -0.7211
     29 C19        -2.1258    6.9180   -5.5717 C.2       1 <0>         0.4991
     30 O5         -2.5858    5.9755   -6.1935 O.co2     1 <0>        -0.6978
     31 O6         -1.3912    7.7158   -6.1290 O.co2     1 <0>        -0.7094
     32 H1          0.8458   -2.4629   -2.3920 H         1 <0>         0.0518
     33 H2         -0.9185   -2.2979   -2.5594 H         1 <0>         0.0699
     34 H3          0.1217   -0.8556   -2.6381 H         1 <0>         0.0714
     35 H4          0.3182    0.3042    1.1348 H         1 <0>         0.0513
     36 H5         -0.6291   -2.5481    1.8141 H         1 <0>         0.0419
     37 H6          1.7767   -1.9440    5.1100 H         1 <0>         0.4025
     38 H7          1.9963   -1.9609    2.6483 H         1 <0>         0.3929
     39 H8         -0.2292    1.1727   -0.9987 H         1 <0>         0.1203
     40 H9          0.1723    3.3691   -2.0224 H         1 <0>         0.1161
     41 H10        -4.0412    3.8240   -2.6942 H         1 <0>         0.1159
     42 H11        -4.4394    1.6227   -1.6796 H         1 <0>         0.1143
     43 H12        -3.6079    5.4419   -3.4338 H         1 <0>         0.3908
     44 H13        -1.6360    7.5889   -3.6059 H         1 <0>         0.0736
     45 H14        -3.5779    8.8972   -4.5166 H         1 <0>         0.0681
     46 H15        -4.5729    7.4247   -4.4163 H         1 <0>         0.0588
     47 H16        -4.1446    7.3015   -1.9770 H         1 <0>         0.0550
     48 H17        -3.1497    8.7740   -2.0773 H         1 <0>         0.0515
     49 H18         0.4997   -1.1072    5.8111 H         1 <0>         0.4183
@<TRIPOS>BOND
     1    1    2 1
     2    1   32 1
     3    1   33 1
     4    1   34 1
     5    2    6 2
     6    2    3 1
     7    3   13 1
     8    3    4 1
     9    4   10 1
    10    4    5 1
    11    4   35 1
    12    5    6 1
    13    5   36 1
    14    5    7 1
    15    7   38 1
    16    7    8 1
    17    8   12 1
    18    8    9 2
    19    9   10 1
    20   10   11 2
    21   12   37 1
    22   12   49 1
    23   13   14 1
    24   14   19 ar
    25   14   15 ar
    26   15   16 ar
    27   15   39 1
    28   16   17 ar
    29   16   40 1
    30   17   18 ar
    31   17   20 1
    32   18   19 ar
    33   18   41 1
    34   19   42 1
    35   20   21 2
    36   20   22 am
    37   22   23 1
    38   22   43 1
    39   23   24 1
    40   23   29 1
    41   23   44 1
    42   24   25 1
    43   24   45 1
    44   24   46 1
    45   25   26 1
    46   25   47 1
    47   25   48 1
    48   26   27 2
    49   26   28 1
    50   29   30 2
    51   29   31 1
@<TRIPOS>MOLECULE
CHEMBL336487__7
   49    51     0     0     0
SMALL
NO_CHARGES

@<TRIPOS>ATOM
      1 C1         -1.6740   -1.7650    3.1622 C.3       1 <0>        -0.1068
      2 C2         -1.3733   -1.2497    1.7783 C.2       1 <0>         0.1851
      3 C3          0.0055   -0.7912    1.2923 C.3       1 <0>        -0.0964
      4 C4         -0.3958    0.1837    0.1775 C.3       1 <0>        -0.2226
      5 C5         -1.5999   -0.6507   -0.3638 C.3       1 <0>         0.2850
      6 N1         -2.2436   -1.1346    0.8218 N.2       1 <0>        -0.4707
      7 N2         -2.2281    0.1556   -1.3787 N.pl3     1 <0>        -0.6965
      8 C6         -1.3570    0.5432   -2.3854 C.2       1 <0>         0.5679
      9 N3         -0.0473    0.5492   -2.1828 N.2       1 <0>        -0.5310
     10 C7          0.5256    0.3339   -0.9879 C.2       1 <0>         0.5056
     11 O1          1.7325    0.2643   -0.8613 O.2       1 <0>        -0.4029
     12 N4         -1.8529    0.9217   -3.5965 N.2       1 <0>        -0.4476
     13 S1          0.9155    0.0597    2.6108 S.3       1 <0>        -0.0004
     14 C8         -0.1693    1.3553    3.1098 C.ar      1 <0>        -0.0529
     15 C9         -1.4473    1.4417    2.5621 C.ar      1 <0>        -0.1678
     16 C10        -2.2936    2.4484    2.9488 C.ar      1 <0>        -0.0131
     17 C11        -1.8730    3.3892    3.8940 C.ar      1 <0>        -0.1617
     18 C12        -0.5896    3.3000    4.4420 C.ar      1 <0>        -0.0516
     19 C13         0.2505    2.2880    4.0555 C.ar      1 <0>        -0.1004
     20 C14        -2.7810    4.4736    4.3116 C.2       1 <0>         0.5522
     21 O2         -3.8967    4.5503    3.8340 O.2       1 <0>        -0.4570
     22 N5         -2.3743    5.3797    5.2227 N.am      1 <0>        -0.5890
     23 C15        -3.2763    6.4570    5.6376 C.3       1 <0>         0.1803
     24 C16        -2.4541    7.6450    6.1412 C.3       1 <0>        -0.1173
     25 C17        -1.6354    8.2249    4.9860 C.3       1 <0>        -0.1049
     26 C18        -0.8256    9.3950    5.4821 C.2       1 <0>         0.5082
     27 O3         -0.8967    9.7338    6.6511 O.co2     1 <0>        -0.5035
     28 O4         -0.0994   10.0030    4.7143 O.co2     1 <0>        -0.4829
     29 C19        -4.1740    5.9629    6.7426 C.2       1 <0>         0.5245
     30 O5         -3.7786    5.1022    7.5103 O.co2     1 <0>        -0.3791
     31 O6         -5.2956    6.4239    6.8689 O.co2     1 <0>        -0.3680
     32 H1         -1.8684   -0.9246    3.8285 H         1 <0>         0.0969
     33 H2          0.5812   -1.6275    0.8956 H         1 <0>         0.1608
     34 H3         -2.5511   -2.4111    3.1268 H         1 <0>         0.0965
     35 H4         -0.6991    1.1515    0.5768 H         1 <0>         0.1414
     36 H5         -1.1713   -1.5209   -0.8609 H         1 <0>         0.0911
     37 H6         -0.8198   -2.3320    3.5324 H         1 <0>         0.0994
     38 H7         -1.2484    1.1938   -4.3046 H         1 <0>         0.3838
     39 H8         -1.7714    0.7150    1.8319 H         1 <0>         0.1447
     40 H9         -3.2841    2.5150    2.5236 H         1 <0>         0.1460
     41 H10        -0.2621    4.0252    5.1722 H         1 <0>         0.1372
     42 H11         1.2402    2.2160    4.4817 H         1 <0>         0.1480
     43 H12        -1.4843    5.3185    5.6037 H         1 <0>         0.4332
     44 H13        -3.8838    6.7695    4.7883 H         1 <0>         0.2017
     45 H14        -3.1240    8.4108    6.5321 H         1 <0>         0.1424
     46 H15        -1.7817    7.3124    6.9320 H         1 <0>         0.1257
     47 H16        -0.9655    7.4591    4.5951 H         1 <0>         0.1128
     48 H17        -2.3078    8.5575    4.1953 H         1 <0>         0.1260
     49 H18        -3.1661    0.4022   -1.3600 H         1 <0>         0.4277
@<TRIPOS>BOND
     1    1    2 1
     2    1   32 1
     3    1   34 1
     4    1   37 1
     5    2    3 1
     6    2    6 2
     7    3    4 1
     8    3   13 1
     9    3   33 1
    10    4   10 1
    11    4    5 1
    12    4   35 1
    13    5    7 1
    14    5   36 1
    15    5    6 1
    16    7    8 1
    17    7   49 1
    18    8    9 2
    19    8   12 1
    20    9   10 1
    21   10   11 2
    22   12   38 1
    23   13   14 1
    24   14   19 ar
    25   14   15 ar
    26   15   16 ar
    27   15   39 1
    28   16   17 ar
    29   16   40 1
    30   17   18 ar
    31   17   20 1
    32   18   19 ar
    33   18   41 1
    34   19   42 1
    35   20   21 2
    36   20   22 am
    37   22   23 1
    38   22   43 1
    39   23   24 1
    40   23   29 1
    41   23   44 1
    42   24   25 1
    43   24   45 1
    44   24   46 1
    45   25   26 1
    46   25   47 1
    47   25   48 1
    48   26   27 2
    49   26   28 1
    50   29   30 2
    51   29   31 1
@<TRIPOS>MOLECULE
CHEMBL336487__8
   50    52     0     0     0
SMALL
NO_CHARGES

@<TRIPOS>ATOM
      1 C1         -1.6740   -1.7650    3.1622 C.3       1 <0>        -0.1064
      2 C2         -1.3733   -1.2497    1.7783 C.2       1 <0>         0.1833
      3 C3          0.0055   -0.7912    1.2923 C.3       1 <0>        -0.0956
      4 C4         -0.3958    0.1837    0.1775 C.3       1 <0>        -0.2230
      5 C5         -1.5999   -0.6507   -0.3638 C.3       1 <0>         0.2868
      6 N1         -2.2436   -1.1346    0.8218 N.2       1 <0>        -0.4768
      7 N2         -2.2281    0.1556   -1.3787 N.pl3     1 <0>        -0.7341
      8 C6         -1.3570    0.5432   -2.3854 C.2       1 <0>         0.7111
      9 N3         -0.0473    0.5492   -2.1828 N.2       1 <0>        -0.6827
     10 C7          0.5256    0.3339   -0.9879 C.2       1 <0>         0.5460
     11 O1          1.7325    0.2643   -0.8613 O.2       1 <0>        -0.4687
     12 N4         -1.8529    0.9217   -3.5965 N.pl3     1 <0>        -0.8021
     13 S1          0.9155    0.0597    2.6108 S.3       1 <0>        -0.0015
     14 C8         -0.1693    1.3553    3.1098 C.ar      1 <0>        -0.0504
     15 C9         -1.4473    1.4417    2.5621 C.ar      1 <0>        -0.1674
     16 C10        -2.2936    2.4484    2.9488 C.ar      1 <0>        -0.0138
     17 C11        -1.8730    3.3892    3.8940 C.ar      1 <0>        -0.1627
     18 C12        -0.5896    3.3000    4.4420 C.ar      1 <0>        -0.0519
     19 C13         0.2505    2.2880    4.0555 C.ar      1 <0>        -0.1016
     20 C14        -2.7810    4.4736    4.3116 C.2       1 <0>         0.5551
     21 O2         -3.8967    4.5503    3.8340 O.2       1 <0>        -0.4602
     22 N5         -2.3743    5.3797    5.2227 N.am      1 <0>        -0.5894
     23 C15        -3.2763    6.4570    5.6376 C.3       1 <0>         0.1800
     24 C16        -2.4541    7.6450    6.1412 C.3       1 <0>        -0.1171
     25 C17        -1.6354    8.2249    4.9860 C.3       1 <0>        -0.1058
     26 C18        -0.8256    9.3950    5.4821 C.2       1 <0>         0.5083
     27 O3         -0.8967    9.7338    6.6511 O.co2     1 <0>        -0.5032
     28 O4         -0.0994   10.0030    4.7143 O.co2     1 <0>        -0.4831
     29 C19        -4.1740    5.9629    6.7426 C.2       1 <0>         0.5255
     30 O5         -3.9541    4.8865    7.2713 O.co2     1 <0>        -0.3826
     31 O6         -5.1201    6.6396    7.1080 O.co2     1 <0>        -0.3693
     32 H1         -1.8684   -0.9246    3.8285 H         1 <0>         0.0959
     33 H2          0.5812   -1.6275    0.8956 H         1 <0>         0.1589
     34 H3         -2.5511   -2.4111    3.1268 H         1 <0>         0.0947
     35 H4         -0.6991    1.1515    0.5768 H         1 <0>         0.1340
     36 H5         -1.1713   -1.5209   -0.8609 H         1 <0>         0.0888
     37 H6         -0.8198   -2.3320    3.5324 H         1 <0>         0.0985
     38 H7         -2.8106    0.9189   -3.7508 H         1 <0>         0.4165
     39 H8         -1.2484    1.1938   -4.3046 H         1 <0>         0.4327
     40 H9         -1.7714    0.7150    1.8319 H         1 <0>         0.1453
     41 H10        -3.2841    2.5150    2.5236 H         1 <0>         0.1442
     42 H11        -0.2621    4.0252    5.1722 H         1 <0>         0.1362
     43 H12         1.2402    2.2160    4.4817 H         1 <0>         0.1474
     44 H13        -1.4843    5.3185    5.6037 H         1 <0>         0.4325
     45 H14        -3.8838    6.7695    4.7883 H         1 <0>         0.2038
     46 H15        -3.1240    8.4108    6.5321 H         1 <0>         0.1445
     47 H16        -1.7817    7.3124    6.9320 H         1 <0>         0.1242
     48 H17        -0.9655    7.4591    4.5951 H         1 <0>         0.1133
     49 H18        -2.3078    8.5575    4.1953 H         1 <0>         0.1253
     50 H19        -3.1661    0.4022   -1.3600 H         1 <0>         0.4165
@<TRIPOS>BOND
     1    1    2 1
     2    1   32 1
     3    1   34 1
     4    1   37 1
     5    2    3 1
     6    2    6 2
     7    3    4 1
     8    3   13 1
     9    3   33 1
    10    4   10 1
    11    4    5 1
    12    4   35 1
    13    5    7 1
    14    5   36 1
    15    5    6 1
    16    7    8 1
    17    7   50 1
    18    8    9 2
    19    8   12 1
    20    9   10 1
    21   10   11 2
    22   12   38 1
    23   12   39 1
    24   13   14 1
    25   14   19 ar
    26   14   15 ar
    27   15   16 ar
    28   15   40 1
    29   16   17 ar
    30   16   41 1
    31   17   18 ar
    32   17   20 1
    33   18   19 ar
    34   18   42 1
    35   19   43 1
    36   20   21 2
    37   20   22 am
    38   22   23 1
    39   22   44 1
    40   23   24 1
    41   23   29 1
    42   23   45 1
    43   24   25 1
    44   24   46 1
    45   24   47 1
    46   25   26 1
    47   25   48 1
    48   25   49 1
    49   26   27 2
    50   26   28 1
    51   29   30 2
    52   29   31 1
@<TRIPOS>MOLECULE
CHEMBL336487__9
   49    51     0     0     0
SMALL
USER_CHARGES

@<TRIPOS>ATOM
      1 C1         -0.0139   -1.8307   -2.1701 C.3       1 <0>        -0.0875
      2 C2         -0.1394   -1.6587   -0.6783 C.2       1 <0>         0.2633
      3 C3         -1.1479   -0.7922   -0.0054 C.2       1 <0>        -0.6063
      4 C4         -0.4409   -0.4635    1.2850 C.3       1 <0>        -0.0840
      5 C5          0.1801   -1.8773    1.5256 C.3       1 <0>         0.3127
      6 N1          0.6217   -2.2563    0.2110 N.2       1 <0>        -0.6484
      7 N2          1.0534   -1.7339    2.6656 N.pl3     1 <0>        -0.7373
      8 C6          0.4076   -1.2394    3.7881 C.2       1 <0>         0.6901
      9 N3         -0.7275   -0.5642    3.6770 N.2       1 <0>        -0.7056
     10 C7         -1.2558   -0.1833    2.5021 C.2       1 <0>         0.5305
     11 O1         -2.3403    0.3613    2.4347 O.2       1 <0>        -0.4758
     12 N4          0.9464   -1.4505    5.0214 N.pl3     1 <0>        -0.8297
     13 S1         -2.6476   -0.3165   -0.5347 S.3       1 <0>         0.1007
     14 C8         -2.3604    1.2592   -1.2691 C.ar      1 <0>        -0.1098
     15 C9         -1.0593    1.7549   -1.3707 C.ar      1 <0>        -0.1376
     16 C10        -0.8342    2.9855   -1.9442 C.ar      1 <0>        -0.0554
     17 C11        -1.9084    3.7389   -2.4250 C.ar      1 <0>        -0.1553
     18 C12        -3.2105    3.2421   -2.3231 C.ar      1 <0>        -0.0737
     19 C13        -3.4336    2.0088   -1.7544 C.ar      1 <0>        -0.1387
     20 C14        -1.6677    5.0603   -3.0405 C.2       1 <0>         0.5618
     21 O2         -0.5348    5.4924   -3.1287 O.2       1 <0>        -0.5693
     22 N5         -2.7040    5.7867   -3.5041 N.am      1 <0>        -0.6849
     23 C15        -2.4652    7.0970   -4.1144 C.3       1 <0>         0.0749
     24 C16        -3.6073    7.4267   -5.0776 C.3       1 <0>        -0.0782
     25 C17        -3.5979    6.4313   -6.2395 C.3       1 <0>        -0.1782
     26 C18        -4.7228    6.7560   -7.1883 C.2       1 <0>         0.4926
     27 O3         -5.4634    7.6964   -6.9566 O.co2     1 <0>        -0.7002
     28 O4         -4.8923    6.0783   -8.1875 O.co2     1 <0>        -0.7225
     29 C19        -2.3977    8.1482   -3.0367 C.2       1 <0>         0.4950
     30 O5         -2.5362    7.8322   -1.8673 O.co2     1 <0>        -0.6930
     31 O6         -2.2046    9.3147   -3.3342 O.co2     1 <0>        -0.7097
     32 H1          0.8458   -2.4629   -2.3920 H         1 <0>         0.0516
     33 H2         -0.9185   -2.2979   -2.5594 H         1 <0>         0.0700
     34 H3          0.1217   -0.8556   -2.6381 H         1 <0>         0.0711
     35 H4          0.3182    0.3042    1.1348 H         1 <0>         0.0515
     36 H5         -0.6291   -2.5481    1.8141 H         1 <0>         0.0418
     37 H6          1.7767   -1.9440    5.1100 H         1 <0>         0.4024
     38 H7          1.9963   -1.9609    2.6483 H         1 <0>         0.3929
     39 H8         -0.2292    1.1727   -0.9987 H         1 <0>         0.1200
     40 H9          0.1723    3.3691   -2.0224 H         1 <0>         0.1159
     41 H10        -4.0412    3.8240   -2.6942 H         1 <0>         0.1149
     42 H11        -4.4394    1.6227   -1.6796 H         1 <0>         0.1138
     43 H12        -3.6079    5.4419   -3.4338 H         1 <0>         0.3886
     44 H13        -1.5228    7.0766   -4.6616 H         1 <0>         0.0738
     45 H14        -4.5586    7.3599   -4.5497 H         1 <0>         0.0536
     46 H15        -3.4763    8.4374   -5.4640 H         1 <0>         0.0748
     47 H16        -2.6466    6.4980   -6.7674 H         1 <0>         0.0510
     48 H17        -3.7289    5.4205   -5.8531 H         1 <0>         0.0538
     49 H18         0.4997   -1.1072    5.8111 H         1 <0>         0.4182
@<TRIPOS>BOND
     1    1    2 1
     2    1   32 1
     3    1   33 1
     4    1   34 1
     5    2    6 2
     6    2    3 1
     7    3   13 1
     8    3    4 1
     9    4   10 1
    10    4    5 1
    11    4   35 1
    12    5    6 1
    13    5   36 1
    14    5    7 1
    15    7   38 1
    16    7    8 1
    17    8   12 1
    18    8    9 2
    19    9   10 1
    20   10   11 2
    21   12   37 1
    22   12   49 1
    23   13   14 1
    24   14   19 ar
    25   14   15 ar
    26   15   16 ar
    27   15   39 1
    28   16   17 ar
    29   16   40 1
    30   17   18 ar
    31   17   20 1
    32   18   19 ar
    33   18   41 1
    34   19   42 1
    35   20   21 2
    36   20   22 am
    37   22   23 1
    38   22   43 1
    39   23   24 1
    40   23   29 1
    41   23   44 1
    42   24   25 1
    43   24   45 1
    44   24   46 1
    45   25   26 1
    46   25   47 1
    47   25   48 1
    48   26   27 2
    49   26   28 1
    50   29   30 2
    51   29   31 1
@<TRIPOS>MOLECULE
CHEMBL336487__10
   49    51     0     0     0
SMALL
NO_CHARGES

@<TRIPOS>ATOM
      1 C1         -1.6740   -1.7650    3.1622 C.3       1 <0>        -0.1063
      2 C2         -1.3733   -1.2497    1.7783 C.2       1 <0>         0.1850
      3 C3          0.0055   -0.7912    1.2923 C.3       1 <0>        -0.0962
      4 C4         -0.3958    0.1837    0.1775 C.3       1 <0>        -0.2229
      5 C5         -1.5999   -0.6507   -0.3638 C.3       1 <0>         0.2851
      6 N1         -2.2436   -1.1346    0.8218 N.2       1 <0>        -0.4706
      7 N2         -2.2281    0.1556   -1.3787 N.pl3     1 <0>        -0.6964
      8 C6         -1.3570    0.5432   -2.3854 C.2       1 <0>         0.5680
      9 N3         -0.0473    0.5492   -2.1828 N.2       1 <0>        -0.5312
     10 C7          0.5256    0.3339   -0.9879 C.2       1 <0>         0.5057
     11 O1          1.7325    0.2643   -0.8613 O.2       1 <0>        -0.4032
     12 N4         -1.8529    0.9217   -3.5965 N.2       1 <0>        -0.4475
     13 S1          0.9155    0.0597    2.6108 S.3       1 <0>        -0.0011
     14 C8         -0.1693    1.3553    3.1098 C.ar      1 <0>        -0.0535
     15 C9         -1.4473    1.4417    2.5621 C.ar      1 <0>        -0.1675
     16 C10        -2.2936    2.4484    2.9488 C.ar      1 <0>        -0.0134
     17 C11        -1.8730    3.3892    3.8940 C.ar      1 <0>        -0.1599
     18 C12        -0.5896    3.3000    4.4420 C.ar      1 <0>        -0.0522
     19 C13         0.2505    2.2880    4.0555 C.ar      1 <0>        -0.1004
     20 C14        -2.7810    4.4736    4.3116 C.2       1 <0>         0.5555
     21 O2         -3.8967    4.5503    3.8340 O.2       1 <0>        -0.4570
     22 N5         -2.3743    5.3797    5.2227 N.am      1 <0>        -0.5912
     23 C15        -3.2763    6.4570    5.6376 C.3       1 <0>         0.1809
     24 C16        -2.8859    6.9387    7.0364 C.3       1 <0>        -0.1175
     25 C17        -3.1112    5.8110    8.0455 C.3       1 <0>        -0.1063
     26 C18        -2.7267    6.2854    9.4232 C.2       1 <0>         0.5082
     27 O3         -2.3110    7.4204    9.5831 O.co2     1 <0>        -0.5020
     28 O4         -2.8313    5.5344   10.3779 O.co2     1 <0>        -0.4831
     29 C19        -3.1715    7.6027    4.6643 C.2       1 <0>         0.5246
     30 O5         -2.4136    7.5265    3.7123 O.co2     1 <0>        -0.3826
     31 O6         -3.8445    8.6059    4.8289 O.co2     1 <0>        -0.3679
     32 H1         -1.8684   -0.9246    3.8285 H         1 <0>         0.0969
     33 H2          0.5812   -1.6275    0.8956 H         1 <0>         0.1607
     34 H3         -2.5511   -2.4111    3.1268 H         1 <0>         0.0963
     35 H4         -0.6991    1.1515    0.5768 H         1 <0>         0.1415
     36 H5         -1.1713   -1.5209   -0.8609 H         1 <0>         0.0911
     37 H6         -0.8198   -2.3320    3.5324 H         1 <0>         0.0993
     38 H7         -1.2484    1.1938   -4.3046 H         1 <0>         0.3838
     39 H8         -1.7714    0.7150    1.8319 H         1 <0>         0.1445
     40 H9         -3.2841    2.5150    2.5236 H         1 <0>         0.1458
     41 H10        -0.2621    4.0252    5.1722 H         1 <0>         0.1366
     42 H11         1.2402    2.2160    4.4817 H         1 <0>         0.1476
     43 H12        -1.4843    5.3185    5.6037 H         1 <0>         0.4320
     44 H13        -4.3013    6.0866    5.6538 H         1 <0>         0.2051
     45 H14        -1.8345    7.2261    7.0414 H         1 <0>         0.1234
     46 H15        -3.4987    7.7979    7.3089 H         1 <0>         0.1457
     47 H16        -4.1626    5.5236    8.0405 H         1 <0>         0.1255
     48 H17        -2.4984    4.9517    7.7729 H         1 <0>         0.1136
     49 H18        -3.1661    0.4022   -1.3600 H         1 <0>         0.4277
@<TRIPOS>BOND
     1    1    2 1
     2    1   32 1
     3    1   34 1
     4    1   37 1
     5    2    3 1
     6    2    6 2
     7    3    4 1
     8    3   13 1
     9    3   33 1
    10    4   10 1
    11    4    5 1
    12    4   35 1
    13    5    7 1
    14    5   36 1
    15    5    6 1
    16    7    8 1
    17    7   49 1
    18    8    9 2
    19    8   12 1
    20    9   10 1
    21   10   11 2
    22   12   38 1
    23   13   14 1
    24   14   19 ar
    25   14   15 ar
    26   15   16 ar
    27   15   39 1
    28   16   17 ar
    29   16   40 1
    30   17   18 ar
    31   17   20 1
    32   18   19 ar
    33   18   41 1
    34   19   42 1
    35   20   21 2
    36   20   22 am
    37   22   23 1
    38   22   43 1
    39   23   24 1
    40   23   29 1
    41   23   44 1
    42   24   25 1
    43   24   45 1
    44   24   46 1
    45   25   26 1
    46   25   47 1
    47   25   48 1
    48   26   27 2
    49   26   28 1
    50   29   30 2
    51   29   31 1
@<TRIPOS>MOLECULE
CHEMBL336487__11
   50    52     0     0     0
SMALL
NO_CHARGES

@<TRIPOS>ATOM
      1 C1         -1.6740   -1.7650    3.1622 C.3       1 <0>        -0.1060
      2 C2         -1.3733   -1.2497    1.7783 C.2       1 <0>         0.1830
      3 C3          0.0055   -0.7912    1.2923 C.3       1 <0>        -0.0957
      4 C4         -0.3958    0.1837    0.1775 C.3       1 <0>        -0.2233
      5 C5         -1.5999   -0.6507   -0.3638 C.3       1 <0>         0.2869
      6 N1         -2.2436   -1.1346    0.8218 N.2       1 <0>        -0.4765
      7 N2         -2.2281    0.1556   -1.3787 N.pl3     1 <0>        -0.7341
      8 C6         -1.3570    0.5432   -2.3854 C.2       1 <0>         0.7111
      9 N3         -0.0473    0.5492   -2.1828 N.2       1 <0>        -0.6828
     10 C7          0.5256    0.3339   -0.9879 C.2       1 <0>         0.5461
     11 O1          1.7325    0.2643   -0.8613 O.2       1 <0>        -0.4688
     12 N4         -1.8529    0.9217   -3.5965 N.pl3     1 <0>        -0.8020
     13 S1          0.9155    0.0597    2.6108 S.3       1 <0>        -0.0008
     14 C8         -0.1693    1.3553    3.1098 C.ar      1 <0>        -0.0499
     15 C9         -1.4473    1.4417    2.5621 C.ar      1 <0>        -0.1675
     16 C10        -2.2936    2.4484    2.9488 C.ar      1 <0>        -0.0135
     17 C11        -1.8730    3.3892    3.8940 C.ar      1 <0>        -0.1641
     18 C12        -0.5896    3.3000    4.4420 C.ar      1 <0>        -0.0516
     19 C13         0.2505    2.2880    4.0555 C.ar      1 <0>        -0.1016
     20 C14        -2.7810    4.4736    4.3116 C.2       1 <0>         0.5525
     21 O2         -3.8967    4.5503    3.8340 O.2       1 <0>        -0.4588
     22 N5         -2.3743    5.3797    5.2227 N.am      1 <0>        -0.5870
     23 C15        -3.2763    6.4570    5.6376 C.3       1 <0>         0.1799
     24 C16        -2.8859    6.9387    7.0364 C.3       1 <0>        -0.1173
     25 C17        -3.1112    5.8110    8.0455 C.3       1 <0>        -0.1053
     26 C18        -2.7267    6.2854    9.4232 C.2       1 <0>         0.5082
     27 O3         -2.3110    7.4204    9.5831 O.co2     1 <0>        -0.5052
     28 O4         -2.8313    5.5344   10.3779 O.co2     1 <0>        -0.4848
     29 C19        -3.1715    7.6027    4.6643 C.2       1 <0>         0.5246
     30 O5         -4.1352    8.3220    4.4633 O.co2     1 <0>        -0.3689
     31 O6         -2.1229    7.8104    4.0779 O.co2     1 <0>        -0.3790
     32 H1         -1.8684   -0.9246    3.8285 H         1 <0>         0.0957
     33 H2          0.5812   -1.6275    0.8956 H         1 <0>         0.1590
     34 H3         -2.5511   -2.4111    3.1268 H         1 <0>         0.0947
     35 H4         -0.6991    1.1515    0.5768 H         1 <0>         0.1339
     36 H5         -1.1713   -1.5209   -0.8609 H         1 <0>         0.0889
     37 H6         -0.8198   -2.3320    3.5324 H         1 <0>         0.0985
     38 H7         -2.8106    0.9189   -3.7508 H         1 <0>         0.4166
     39 H8         -1.2484    1.1938   -4.3046 H         1 <0>         0.4327
     40 H9         -1.7714    0.7150    1.8319 H         1 <0>         0.1455
     41 H10        -3.2841    2.5150    2.5236 H         1 <0>         0.1444
     42 H11        -0.2621    4.0252    5.1722 H         1 <0>         0.1366
     43 H12         1.2402    2.2160    4.4817 H         1 <0>         0.1477
     44 H13        -1.4843    5.3185    5.6037 H         1 <0>         0.4334
     45 H14        -4.3013    6.0866    5.6538 H         1 <0>         0.2021
     46 H15        -1.8345    7.2261    7.0414 H         1 <0>         0.1255
     47 H16        -3.4987    7.7979    7.3089 H         1 <0>         0.1421
     48 H17        -4.1626    5.5236    8.0405 H         1 <0>         0.1258
     49 H18        -2.4984    4.9517    7.7729 H         1 <0>         0.1129
     50 H19        -3.1661    0.4022   -1.3600 H         1 <0>         0.4165
@<TRIPOS>BOND
     1    1    2 1
     2    1   32 1
     3    1   34 1
     4    1   37 1
     5    2    3 1
     6    2    6 2
     7    3    4 1
     8    3   13 1
     9    3   33 1
    10    4   10 1
    11    4    5 1
    12    4   35 1
    13    5    7 1
    14    5   36 1
    15    5    6 1
    16    7    8 1
    17    7   50 1
    18    8    9 2
    19    8   12 1
    20    9   10 1
    21   10   11 2
    22   12   38 1
    23   12   39 1
    24   13   14 1
    25   14   19 ar
    26   14   15 ar
    27   15   16 ar
    28   15   40 1
    29   16   17 ar
    30   16   41 1
    31   17   18 ar
    32   17   20 1
    33   18   19 ar
    34   18   42 1
    35   19   43 1
    36   20   21 2
    37   20   22 am
    38   22   23 1
    39   22   44 1
    40   23   24 1
    41   23   29 1
    42   23   45 1
    43   24   25 1
    44   24   46 1
    45   24   47 1
    46   25   26 1
    47   25   48 1
    48   25   49 1
    49   26   27 2
    50   26   28 1
    51   29   30 2
    52   29   31 1
@<TRIPOS>MOLECULE
CHEMBL336487__12
   49    51     0     0     0
SMALL
USER_CHARGES

@<TRIPOS>ATOM
      1 C1          0.2092   -1.2185    2.2322 C.3       1 <0>        -0.0882
      2 C2         -0.0251   -1.3970    0.7542 C.2       1 <0>         0.2655
      3 C3         -1.2558   -0.9680    0.0319 C.2       1 <0>        -0.6075
      4 C4         -0.7198   -0.7483   -1.3600 C.3       1 <0>        -0.0844
      5 C5          0.2405   -1.9809   -1.3895 C.3       1 <0>         0.3129
      6 N1          0.8299   -1.9475   -0.0783 N.2       1 <0>        -0.6485
      7 N2          0.9924   -1.8638   -2.6158 N.pl3     1 <0>        -0.7372
      8 C6          0.1889   -1.7895   -3.7429 C.2       1 <0>         0.6904
      9 N3         -1.0778   -1.4102   -3.6507 N.2       1 <0>        -0.7064
     10 C7         -1.6341   -0.9384   -2.5228 C.2       1 <0>         0.5306
     11 O1         -2.8196   -0.6795   -2.4537 O.2       1 <0>        -0.4771
     12 N4          0.7079   -2.1101   -4.9609 N.pl3     1 <0>        -0.8295
     13 S1         -2.8024   -0.7824    0.6057 S.3       1 <0>         0.1032
     14 C8         -2.8627    0.8977    1.1330 C.ar      1 <0>        -0.1111
     15 C9         -1.7800    1.7448    0.8891 C.ar      1 <0>        -0.1364
     16 C10        -1.8264    3.0573    1.3007 C.ar      1 <0>        -0.0551
     17 C11        -2.9575    3.5420    1.9628 C.ar      1 <0>        -0.1578
     18 C12        -4.0407    2.6935    2.2066 C.ar      1 <0>        -0.0728
     19 C13        -3.9953    1.3828    1.7894 C.ar      1 <0>        -0.1395
     20 C14        -3.0078    4.9507    2.4054 C.2       1 <0>         0.5549
     21 O2         -2.0651    5.6884    2.1936 O.2       1 <0>        -0.5676
     22 N5         -4.0989    5.4178    3.0440 N.am      1 <0>        -0.6846
     23 C15        -4.1488    6.8147    3.4829 C.3       1 <0>         0.0758
     24 C16        -5.1176    6.9452    4.6599 C.3       1 <0>        -0.0802
     25 C17        -4.5733    6.1638    5.8574 C.3       1 <0>        -0.1775
     26 C18        -5.5276    6.2924    7.0167 C.2       1 <0>         0.4928
     27 O3         -6.5483    6.9481    6.8963 O.co2     1 <0>        -0.7006
     28 O4         -5.2788    5.7406    8.0751 O.co2     1 <0>        -0.7218
     29 C19        -4.6213    7.6822    2.3448 C.2       1 <0>         0.4984
     30 O5         -5.3805    7.2275    1.5061 O.co2     1 <0>        -0.6970
     31 O6         -4.2444    8.8388    2.2627 O.co2     1 <0>        -0.7095
     32 H1          1.1516   -1.6903    2.5102 H         1 <0>         0.0516
     33 H2          0.2518   -0.1551    2.4675 H         1 <0>         0.0708
     34 H3         -0.6065   -1.6812    2.7878 H         1 <0>         0.0714
     35 H4         -0.1840    0.1983   -1.4320 H         1 <0>         0.0513
     36 H5         -0.3754   -2.8769   -1.4661 H         1 <0>         0.0426
     37 H6          1.6342   -2.3882   -5.0355 H         1 <0>         0.4026
     38 H7          1.9616   -1.8390   -2.6480 H         1 <0>         0.3933
     39 H8         -0.9058    1.3700    0.3776 H         1 <0>         0.1197
     40 H9         -0.9887    3.7124    1.1123 H         1 <0>         0.1161
     41 H10        -4.9151    3.0674    2.7186 H         1 <0>         0.1159
     42 H11        -4.8342    0.7281    1.9738 H         1 <0>         0.1143
     43 H12        -4.8511    4.8292    3.2131 H         1 <0>         0.3908
     44 H13        -3.1540    7.1335    3.7940 H         1 <0>         0.0738
     45 H14        -5.2227    7.9961    4.9291 H         1 <0>         0.0681
     46 H15        -6.0904    6.5438    4.3759 H         1 <0>         0.0588
     47 H16        -4.4682    5.1129    5.5882 H         1 <0>         0.0548
     48 H17        -3.6005    6.5652    6.1414 H         1 <0>         0.0515
     49 H18         0.1511   -2.0603   -5.7537 H         1 <0>         0.4182
@<TRIPOS>BOND
     1    1    2 1
     2    1   32 1
     3    1   33 1
     4    1   34 1
     5    2    6 2
     6    2    3 1
     7    3   13 1
     8    3    4 1
     9    4   10 1
    10    4    5 1
    11    4   35 1
    12    5    6 1
    13    5   36 1
    14    5    7 1
    15    7   38 1
    16    7    8 1
    17    8   12 1
    18    8    9 2
    19    9   10 1
    20   10   11 2
    21   12   37 1
    22   12   49 1
    23   13   14 1
    24   14   19 ar
    25   14   15 ar
    26   15   16 ar
    27   15   39 1
    28   16   17 ar
    29   16   40 1
    30   17   18 ar
    31   17   20 1
    32   18   19 ar
    33   18   41 1
    34   19   42 1
    35   20   21 2
    36   20   22 am
    37   22   23 1
    38   22   43 1
    39   23   24 1
    40   23   29 1
    41   23   44 1
    42   24   25 1
    43   24   45 1
    44   24   46 1
    45   25   26 1
    46   25   47 1
    47   25   48 1
    48   26   27 2
    49   26   28 1
    50   29   30 2
    51   29   31 1
@<TRIPOS>MOLECULE
CHEMBL336487__13
   49    51     0     0     0
SMALL
NO_CHARGES

@<TRIPOS>ATOM
      1 C1         -0.0184    1.5028    0.0103 C.3       1 <0>        -0.1184
      2 C2          0.0021   -0.0041    0.0020 C.2       1 <0>         0.1830
      3 C3          0.0260   -0.8889    1.2527 C.3       1 <0>        -0.0970
      4 C4         -0.6138   -2.1717    0.7056 C.3       1 <0>        -0.1890
      5 C5          0.0688   -2.1263   -0.6984 C.3       1 <0>         0.2902
      6 N1         -0.0036   -0.7425   -1.0659 N.2       1 <0>        -0.4623
      7 N2         -0.4949   -3.2123   -1.4585 N.pl3     1 <0>        -0.6955
      8 C6         -0.3517   -4.4447   -0.8394 C.2       1 <0>         0.5683
      9 N3         -0.1398   -4.5263    0.4663 N.2       1 <0>        -0.5317
     10 C7         -0.1905   -3.4747    1.2994 C.2       1 <0>         0.5024
     11 O1          0.0939   -3.5780    2.4766 O.2       1 <0>        -0.4038
     12 N4         -0.4303   -5.5844   -1.5815 N.2       1 <0>        -0.4467
     13 S1         -0.9781   -0.1714    2.5822 S.3       1 <0>        -0.0137
     14 C8         -0.1178    1.3034    3.0176 C.ar      1 <0>        -0.0554
     15 C9          1.0541    1.6480    2.3479 C.ar      1 <0>        -0.1423
     16 C10         1.7253    2.7951    2.6842 C.ar      1 <0>        -0.0215
     17 C11         1.2325    3.6195    3.7005 C.ar      1 <0>        -0.1587
     18 C12         0.0559    3.2709    4.3710 C.ar      1 <0>        -0.0546
     19 C13        -0.6139    2.1254    4.0268 C.ar      1 <0>        -0.0997
     20 C14         1.9525    4.8539    4.0649 C.2       1 <0>         0.5519
     21 O2          2.9758    5.1557    3.4814 O.2       1 <0>        -0.4570
     22 N5          1.4764    5.6475    5.0447 N.am      1 <0>        -0.5882
     23 C15         2.1917    6.8737    5.4067 C.3       1 <0>         0.1799
     24 C16         1.8648    7.2464    6.8541 C.3       1 <0>        -0.1173
     25 C17         2.4086    6.1683    7.7937 C.3       1 <0>        -0.1049
     26 C18         2.0866    6.5354    9.2193 C.2       1 <0>         0.5081
     27 O3          1.4785    7.5640    9.4615 O.co2     1 <0>        -0.5043
     28 O4          2.4342    5.8038   10.1306 O.co2     1 <0>        -0.4833
     29 C19         1.7657    7.9926    4.4914 C.2       1 <0>         0.5248
     30 O5          0.6410    8.0003    4.0206 O.co2     1 <0>        -0.3798
     31 O6          2.5457    8.8900    4.2216 O.co2     1 <0>        -0.3687
     32 H1          1.0042    1.8801    0.0026 H         1 <0>         0.1002
     33 H2          1.0474   -1.0701    1.5873 H         1 <0>         0.1350
     34 H3         -0.5455    1.8639   -0.8728 H         1 <0>         0.0977
     35 H4         -1.6993   -2.0898    0.6494 H         1 <0>         0.1402
     36 H5          1.1215   -2.3574   -0.5354 H         1 <0>         0.0901
     37 H6         -0.5286    1.8543    0.9071 H         1 <0>         0.0964
     38 H7         -0.3309   -6.4494   -1.1539 H         1 <0>         0.3839
     39 H8          1.4344    1.0108    1.5633 H         1 <0>         0.1401
     40 H9          2.6339    3.0616    2.1649 H         1 <0>         0.1486
     41 H10        -0.3270    3.9058    5.1564 H         1 <0>         0.1361
     42 H11        -1.5251    1.8580    4.5413 H         1 <0>         0.1461
     43 H12         0.6601    5.4068    5.5102 H         1 <0>         0.4333
     44 H13         3.2649    6.7113    5.3068 H         1 <0>         0.2021
     45 H14         2.3251    8.2045    7.0954 H         1 <0>         0.1421
     46 H15         0.7841    7.3220    6.9747 H         1 <0>         0.1254
     47 H16         1.9482    5.2102    7.5523 H         1 <0>         0.1132
     48 H17         3.4893    6.0927    7.6731 H         1 <0>         0.1261
     49 H18        -0.9307   -3.0934   -2.3169 H         1 <0>         0.4286
@<TRIPOS>BOND
     1    1    2 1
     2    1   32 1
     3    1   34 1
     4    1   37 1
     5    2    3 1
     6    2    6 2
     7    3    4 1
     8    3   13 1
     9    3   33 1
    10    4   10 1
    11    4    5 1
    12    4   35 1
    13    5    7 1
    14    5   36 1
    15    5    6 1
    16    7    8 1
    17    7   49 1
    18    8    9 2
    19    8   12 1
    20    9   10 1
    21   10   11 2
    22   12   38 1
    23   13   14 1
    24   14   19 ar
    25   14   15 ar
    26   15   16 ar
    27   15   39 1
    28   16   17 ar
    29   16   40 1
    30   17   18 ar
    31   17   20 1
    32   18   19 ar
    33   18   41 1
    34   19   42 1
    35   20   21 2
    36   20   22 am
    37   22   23 1
    38   22   43 1
    39   23   24 1
    40   23   29 1
    41   23   44 1
    42   24   25 1
    43   24   45 1
    44   24   46 1
    45   25   26 1
    46   25   47 1
    47   25   48 1
    48   26   27 2
    49   26   28 1
    50   29   30 2
    51   29   31 1
@<TRIPOS>MOLECULE
CHEMBL336487__14
   50    52     0     0     0
SMALL
NO_CHARGES

@<TRIPOS>ATOM
      1 C1         -0.0184    1.5028    0.0103 C.3       1 <0>        -0.1178
      2 C2          0.0021   -0.0041    0.0020 C.2       1 <0>         0.1812
      3 C3          0.0260   -0.8889    1.2527 C.3       1 <0>        -0.0953
      4 C4         -0.6138   -2.1717    0.7056 C.3       1 <0>        -0.1904
      5 C5          0.0688   -2.1263   -0.6984 C.3       1 <0>         0.2921
      6 N1         -0.0036   -0.7425   -1.0659 N.2       1 <0>        -0.4689
      7 N2         -0.4949   -3.2123   -1.4585 N.pl3     1 <0>        -0.7334
      8 C6         -0.3517   -4.4447   -0.8394 C.2       1 <0>         0.7115
      9 N3         -0.1398   -4.5263    0.4663 N.2       1 <0>        -0.6833
     10 C7         -0.1905   -3.4747    1.2994 C.2       1 <0>         0.5429
     11 O1          0.0939   -3.5780    2.4766 O.2       1 <0>        -0.4696
     12 N4         -0.4303   -5.5844   -1.5815 N.pl3     1 <0>        -0.8019
     13 S1         -0.9781   -0.1714    2.5822 S.3       1 <0>        -0.0129
     14 C8         -0.1178    1.3034    3.0176 C.ar      1 <0>        -0.0546
     15 C9          1.0541    1.6480    2.3479 C.ar      1 <0>        -0.1428
     16 C10         1.7253    2.7951    2.6842 C.ar      1 <0>        -0.0214
     17 C11         1.2325    3.6195    3.7005 C.ar      1 <0>        -0.1593
     18 C12         0.0559    3.2709    4.3710 C.ar      1 <0>        -0.0547
     19 C13        -0.6139    2.1254    4.0268 C.ar      1 <0>        -0.1010
     20 C14         1.9525    4.8539    4.0649 C.2       1 <0>         0.5544
     21 O2          2.9758    5.1557    3.4814 O.2       1 <0>        -0.4588
     22 N5          1.4764    5.6475    5.0447 N.am      1 <0>        -0.5884
     23 C15         2.1917    6.8737    5.4067 C.3       1 <0>         0.1796
     24 C16         1.8648    7.2464    6.8541 C.3       1 <0>        -0.1170
     25 C17         2.4086    6.1683    7.7937 C.3       1 <0>        -0.1060
     26 C18         2.0866    6.5354    9.2193 C.2       1 <0>         0.5082
     27 O3          1.4785    7.5640    9.4615 O.co2     1 <0>        -0.5045
     28 O4          2.4342    5.8038   10.1306 O.co2     1 <0>        -0.4839
     29 C19         1.7657    7.9926    4.4914 C.2       1 <0>         0.5259
     30 O5          0.8164    7.8390    3.7418 O.co2     1 <0>        -0.3833
     31 O6          2.3703    9.0513    4.5004 O.co2     1 <0>        -0.3696
     32 H1          1.0042    1.8801    0.0026 H         1 <0>         0.0991
     33 H2          1.0474   -1.0701    1.5873 H         1 <0>         0.1332
     34 H3         -0.5455    1.8639   -0.8728 H         1 <0>         0.0958
     35 H4         -1.6993   -2.0898    0.6494 H         1 <0>         0.1317
     36 H5          1.1215   -2.3574   -0.5354 H         1 <0>         0.0880
     37 H6         -0.5286    1.8543    0.9071 H         1 <0>         0.0959
     38 H7         -0.5856   -5.5309   -2.5375 H         1 <0>         0.4167
     39 H8         -0.3309   -6.4494   -1.1539 H         1 <0>         0.4327
     40 H9          1.4344    1.0108    1.5633 H         1 <0>         0.1399
     41 H10         2.6339    3.0616    2.1649 H         1 <0>         0.1478
     42 H11        -0.3270    3.9058    5.1564 H         1 <0>         0.1352
     43 H12        -1.5251    1.8580    4.5413 H         1 <0>         0.1456
     44 H13         0.6601    5.4068    5.5102 H         1 <0>         0.4326
     45 H14         3.2649    6.7113    5.3068 H         1 <0>         0.2045
     46 H15         2.3251    8.2045    7.0954 H         1 <0>         0.1442
     47 H16         0.7841    7.3220    6.9747 H         1 <0>         0.1238
     48 H17         1.9482    5.2102    7.5523 H         1 <0>         0.1135
     49 H18         3.4893    6.0927    7.6731 H         1 <0>         0.1254
     50 H19        -0.9307   -3.0934   -2.3169 H         1 <0>         0.4174
@<TRIPOS>BOND
     1    1    2 1
     2    1   32 1
     3    1   34 1
     4    1   37 1
     5    2    3 1
     6    2    6 2
     7    3    4 1
     8    3   13 1
     9    3   33 1
    10    4   10 1
    11    4    5 1
    12    4   35 1
    13    5    7 1
    14    5   36 1
    15    5    6 1
    16    7    8 1
    17    7   50 1
    18    8    9 2
    19    8   12 1
    20    9   10 1
    21   10   11 2
    22   12   38 1
    23   12   39 1
    24   13   14 1
    25   14   19 ar
    26   14   15 ar
    27   15   16 ar
    28   15   40 1
    29   16   17 ar
    30   16   41 1
    31   17   18 ar
    32   17   20 1
    33   18   19 ar
    34   18   42 1
    35   19   43 1
    36   20   21 2
    37   20   22 am
    38   22   23 1
    39   22   44 1
    40   23   24 1
    41   23   29 1
    42   23   45 1
    43   24   25 1
    44   24   46 1
    45   24   47 1
    46   25   26 1
    47   25   48 1
    48   25   49 1
    49   26   27 2
    50   26   28 1
    51   29   30 2
    52   29   31 1
@<TRIPOS>MOLECULE
CHEMBL336487__15
   49    51     0     0     0
SMALL
USER_CHARGES

@<TRIPOS>ATOM
      1 C1          0.2092   -1.2185    2.2322 C.3       1 <0>        -0.0885
      2 C2         -0.0251   -1.3970    0.7542 C.2       1 <0>         0.2657
      3 C3         -1.2558   -0.9680    0.0319 C.2       1 <0>        -0.6073
      4 C4         -0.7198   -0.7483   -1.3600 C.3       1 <0>        -0.0840
      5 C5          0.2405   -1.9809   -1.3895 C.3       1 <0>         0.3129
      6 N1          0.8299   -1.9475   -0.0783 N.2       1 <0>        -0.6489
      7 N2          0.9924   -1.8638   -2.6158 N.pl3     1 <0>        -0.7372
      8 C6          0.1889   -1.7895   -3.7429 C.2       1 <0>         0.6904
      9 N3         -1.0778   -1.4102   -3.6507 N.2       1 <0>        -0.7064
     10 C7         -1.6341   -0.9384   -2.5228 C.2       1 <0>         0.5305
     11 O1         -2.8196   -0.6795   -2.4537 O.2       1 <0>        -0.4769
     12 N4          0.7079   -2.1101   -4.9609 N.pl3     1 <0>        -0.8296
     13 S1         -2.8024   -0.7824    0.6057 S.3       1 <0>         0.1020
     14 C8         -2.8627    0.8977    1.1330 C.ar      1 <0>        -0.1118
     15 C9         -1.7800    1.7448    0.8891 C.ar      1 <0>        -0.1362
     16 C10        -1.8264    3.0573    1.3007 C.ar      1 <0>        -0.0555
     17 C11        -2.9575    3.5420    1.9628 C.ar      1 <0>        -0.1551
     18 C12        -4.0407    2.6935    2.2066 C.ar      1 <0>        -0.0739
     19 C13        -3.9953    1.3828    1.7894 C.ar      1 <0>        -0.1396
     20 C14        -3.0078    4.9507    2.4054 C.2       1 <0>         0.5618
     21 O2         -2.0651    5.6884    2.1936 O.2       1 <0>        -0.5691
     22 N5         -4.0989    5.4178    3.0440 N.am      1 <0>        -0.6849
     23 C15        -4.1488    6.8147    3.4829 C.3       1 <0>         0.0746
     24 C16        -5.6075    7.2638    3.5898 C.3       1 <0>        -0.0779
     25 C17        -6.2476    7.2530    2.2002 C.3       1 <0>        -0.1788
     26 C18        -7.6844    7.6954    2.3055 C.2       1 <0>         0.4928
     27 O3         -8.1529    7.9919    3.3914 O.co2     1 <0>        -0.7007
     28 O4         -8.3782    7.7569    1.3049 O.co2     1 <0>        -0.7219
     29 C19        -3.4839    6.9423    4.8292 C.2       1 <0>         0.4957
     30 O5         -3.0121    5.9577    5.3719 O.co2     1 <0>        -0.6939
     31 O6         -3.4178    8.0301    5.3758 O.co2     1 <0>        -0.7093
     32 H1          1.1516   -1.6903    2.5102 H         1 <0>         0.0515
     33 H2          0.2518   -0.1551    2.4675 H         1 <0>         0.0714
     34 H3         -0.6065   -1.6812    2.7878 H         1 <0>         0.0713
     35 H4         -0.1840    0.1983   -1.4320 H         1 <0>         0.0511
     36 H5         -0.3754   -2.8769   -1.4661 H         1 <0>         0.0424
     37 H6          1.6342   -2.3882   -5.0355 H         1 <0>         0.4026
     38 H7          1.9616   -1.8390   -2.6480 H         1 <0>         0.3932
     39 H8         -0.9058    1.3700    0.3776 H         1 <0>         0.1194
     40 H9         -0.9887    3.7124    1.1123 H         1 <0>         0.1158
     41 H10        -4.9151    3.0674    2.7186 H         1 <0>         0.1149
     42 H11        -4.8342    0.7281    1.9738 H         1 <0>         0.1138
     43 H12        -4.8511    4.8292    3.2131 H         1 <0>         0.3885
     44 H13        -3.6277    7.4416    2.7594 H         1 <0>         0.0738
     45 H14        -6.1503    6.5827    4.2452 H         1 <0>         0.0535
     46 H15        -5.6478    8.2727    4.0006 H         1 <0>         0.0747
     47 H16        -5.7048    7.9342    1.5448 H         1 <0>         0.0510
     48 H17        -6.2073    6.2442    1.7894 H         1 <0>         0.0539
     49 H18         0.1511   -2.0603   -5.7537 H         1 <0>         0.4182
@<TRIPOS>BOND
     1    1    2 1
     2    1   32 1
     3    1   33 1
     4    1   34 1
     5    2    6 2
     6    2    3 1
     7    3   13 1
     8    3    4 1
     9    4   10 1
    10    4    5 1
    11    4   35 1
    12    5    6 1
    13    5   36 1
    14    5    7 1
    15    7   38 1
    16    7    8 1
    17    8   12 1
    18    8    9 2
    19    9   10 1
    20   10   11 2
    21   12   37 1
    22   12   49 1
    23   13   14 1
    24   14   19 ar
    25   14   15 ar
    26   15   16 ar
    27   15   39 1
    28   16   17 ar
    29   16   40 1
    30   17   18 ar
    31   17   20 1
    32   18   19 ar
    33   18   41 1
    34   19   42 1
    35   20   21 2
    36   20   22 am
    37   22   23 1
    38   22   43 1
    39   23   24 1
    40   23   29 1
    41   23   44 1
    42   24   25 1
    43   24   45 1
    44   24   46 1
    45   25   26 1
    46   25   47 1
    47   25   48 1
    48   26   27 2
    49   26   28 1
    50   29   30 2
    51   29   31 1
@<TRIPOS>MOLECULE
CHEMBL336487__16
   49    51     0     0     0
SMALL
NO_CHARGES

@<TRIPOS>ATOM
      1 C1          0.1039    1.4460   -0.2097 C.3       1 <0>        -0.1064
      2 C2          0.0852   -0.0586   -0.1253 C.2       1 <0>         0.1826
      3 C3          0.1575   -0.8662    1.1747 C.3       1 <0>        -0.1011
      4 C4         -0.5450   -2.1607    0.7447 C.3       1 <0>        -0.1913
      5 C5          0.0576   -2.2204   -0.6949 C.3       1 <0>         0.2810
      6 N1         -0.0001   -0.8599   -1.1432 N.2       1 <0>        -0.4603
      7 N2         -0.5761   -3.3337   -1.3537 N.pl3     1 <0>        -0.6976
      8 C6         -0.4295   -4.5299   -0.6680 C.2       1 <0>         0.5678
      9 N3         -0.1458   -4.5382    0.6266 N.2       1 <0>        -0.5295
     10 C7         -0.1221   -3.4370    1.3942 C.2       1 <0>         0.4964
     11 O1          0.2261   -3.4769    2.5580 O.2       1 <0>        -0.3927
     12 N4         -0.5793   -5.7098   -1.3323 N.2       1 <0>        -0.4524
     13 S1          1.8780   -1.1827    1.6546 S.3       1 <0>        -0.0177
     14 C8          2.4445    0.3720    2.2602 C.ar      1 <0>        -0.0482
     15 C9          1.5452    1.4226    2.4269 C.ar      1 <0>        -0.1444
     16 C10         1.9830    2.6332    2.8983 C.ar      1 <0>        -0.0166
     17 C11         3.3338    2.8127    3.2119 C.ar      1 <0>        -0.1588
     18 C12         4.2343    1.7563    3.0434 C.ar      1 <0>        -0.0534
     19 C13         3.7899    0.5464    2.5767 C.ar      1 <0>        -0.1015
     20 C14         3.8080    4.1140    3.7187 C.2       1 <0>         0.5558
     21 O2          3.0240    5.0321    3.8643 O.2       1 <0>        -0.4571
     22 N5          5.1103    4.2857    4.0205 N.am      1 <0>        -0.5912
     23 C15         5.5813    5.5783    4.5240 C.3       1 <0>         0.1805
     24 C16         6.8530    5.3715    5.3492 C.3       1 <0>        -0.1175
     25 C17         6.5238    4.5473    6.5955 C.3       1 <0>        -0.1064
     26 C18         7.7764    4.3436    7.4083 C.2       1 <0>         0.5082
     27 O3          8.8343    4.8141    7.0262 O.co2     1 <0>        -0.5019
     28 O4          7.7318    3.7083    8.4480 O.co2     1 <0>        -0.4824
     29 C19         5.8790    6.4915    3.3627 C.2       1 <0>         0.5250
     30 O5          5.7131    6.0989    2.2204 O.co2     1 <0>        -0.3834
     31 O6          6.2857    7.6228    3.5655 O.co2     1 <0>        -0.3692
     32 H1          1.1359    1.7966   -0.2179 H         1 <0>         0.0962
     33 H2         -0.3881   -0.3700    1.9773 H         1 <0>         0.1343
     34 H3         -0.3955    1.7648   -1.1246 H         1 <0>         0.0980
     35 H4         -1.6295   -2.0508    0.7435 H         1 <0>         0.1453
     36 H5          1.1116   -2.4717   -0.5762 H         1 <0>         0.0931
     37 H6         -0.4153    1.8647    0.6524 H         1 <0>         0.0913
     38 H7         -0.4780   -6.5497   -0.8578 H         1 <0>         0.3828
     39 H8          0.5020    1.2835    2.1843 H         1 <0>         0.1406
     40 H9          1.2853    3.4475    3.0271 H         1 <0>         0.1494
     41 H10         5.2782    1.8922    3.2848 H         1 <0>         0.1356
     42 H11         4.4841   -0.2713    2.4507 H         1 <0>         0.1443
     43 H12         5.7357    3.5534    3.9043 H         1 <0>         0.4320
     44 H13         4.8105    6.0269    5.1506 H         1 <0>         0.2050
     45 H14         7.5936    4.8428    4.7491 H         1 <0>         0.1233
     46 H15         7.2529    6.3401    5.6493 H         1 <0>         0.1456
     47 H16         5.7832    5.0760    7.1956 H         1 <0>         0.1257
     48 H17         6.1239    3.5787    6.2953 H         1 <0>         0.1138
     49 H18        -1.0568   -3.2545   -2.1925 H         1 <0>         0.4275
@<TRIPOS>BOND
     1    1    2 1
     2    1   32 1
     3    1   34 1
     4    1   37 1
     5    2    3 1
     6    2    6 2
     7    3    4 1
     8    3   13 1
     9    3   33 1
    10    4   10 1
    11    4    5 1
    12    4   35 1
    13    5    7 1
    14    5   36 1
    15    5    6 1
    16    7    8 1
    17    7   49 1
    18    8    9 2
    19    8   12 1
    20    9   10 1
    21   10   11 2
    22   12   38 1
    23   13   14 1
    24   14   19 ar
    25   14   15 ar
    26   15   16 ar
    27   15   39 1
    28   16   17 ar
    29   16   40 1
    30   17   18 ar
    31   17   20 1
    32   18   19 ar
    33   18   41 1
    34   19   42 1
    35   20   21 2
    36   20   22 am
    37   22   23 1
    38   22   43 1
    39   23   24 1
    40   23   29 1
    41   23   44 1
    42   24   25 1
    43   24   45 1
    44   24   46 1
    45   25   26 1
    46   25   47 1
    47   25   48 1
    48   26   27 2
    49   26   28 1
    50   29   30 2
    51   29   31 1
@<TRIPOS>MOLECULE
CHEMBL336487__17
   50    52     0     0     0
SMALL
NO_CHARGES

@<TRIPOS>ATOM
      1 C1          0.1039    1.4460   -0.2097 C.3       1 <0>        -0.1059
      2 C2          0.0852   -0.0586   -0.1253 C.2       1 <0>         0.1810
      3 C3          0.1575   -0.8662    1.1747 C.3       1 <0>        -0.1014
      4 C4         -0.5450   -2.1607    0.7447 C.3       1 <0>        -0.1940
      5 C5          0.0576   -2.2204   -0.6949 C.3       1 <0>         0.2828
      6 N1         -0.0001   -0.8599   -1.1432 N.2       1 <0>        -0.4670
      7 N2         -0.5761   -3.3337   -1.3537 N.pl3     1 <0>        -0.7338
      8 C6         -0.4295   -4.5299   -0.6680 C.2       1 <0>         0.7103
      9 N3         -0.1458   -4.5382    0.6266 N.2       1 <0>        -0.6823
     10 C7         -0.1221   -3.4370    1.3942 C.2       1 <0>         0.5386
     11 O1          0.2261   -3.4769    2.5580 O.2       1 <0>        -0.4601
     12 N4         -0.5793   -5.7098   -1.3323 N.pl3     1 <0>        -0.8026
     13 S1          1.8780   -1.1827    1.6546 S.3       1 <0>        -0.0086
     14 C8          2.4445    0.3720    2.2602 C.ar      1 <0>        -0.0480
     15 C9          1.5452    1.4226    2.4269 C.ar      1 <0>        -0.1466
     16 C10         1.9830    2.6332    2.8983 C.ar      1 <0>        -0.0157
     17 C11         3.3338    2.8127    3.2119 C.ar      1 <0>        -0.1638
     18 C12         4.2343    1.7563    3.0434 C.ar      1 <0>        -0.0524
     19 C13         3.7899    0.5464    2.5767 C.ar      1 <0>        -0.1035
     20 C14         3.8080    4.1140    3.7187 C.2       1 <0>         0.5522
     21 O2          3.0240    5.0321    3.8643 O.2       1 <0>        -0.4579
     22 N5          5.1103    4.2857    4.0205 N.am      1 <0>        -0.5862
     23 C15         5.5813    5.5783    4.5240 C.3       1 <0>         0.1793
     24 C16         6.8530    5.3715    5.3492 C.3       1 <0>        -0.1171
     25 C17         6.5238    4.5473    6.5955 C.3       1 <0>        -0.1057
     26 C18         7.7764    4.3436    7.4083 C.2       1 <0>         0.5082
     27 O3          8.8343    4.8141    7.0262 O.co2     1 <0>        -0.5062
     28 O4          7.7318    3.7083    8.4480 O.co2     1 <0>        -0.4848
     29 C19         5.8790    6.4915    3.3627 C.2       1 <0>         0.5254
     30 O5          5.7500    7.6975    3.4869 O.co2     1 <0>        -0.3696
     31 O6          6.2488    6.0243    2.2990 O.co2     1 <0>        -0.3805
     32 H1          1.1359    1.7966   -0.2179 H         1 <0>         0.0951
     33 H2         -0.3881   -0.3700    1.9773 H         1 <0>         0.1306
     34 H3         -0.3955    1.7648   -1.1246 H         1 <0>         0.0961
     35 H4         -1.6295   -2.0508    0.7435 H         1 <0>         0.1367
     36 H5          1.1116   -2.4717   -0.5762 H         1 <0>         0.0917
     37 H6         -0.4153    1.8647    0.6524 H         1 <0>         0.0905
     38 H7         -0.7873   -5.7099   -2.2797 H         1 <0>         0.4163
     39 H8         -0.4780   -6.5497   -0.8578 H         1 <0>         0.4323
     40 H9          0.5020    1.2835    2.1843 H         1 <0>         0.1402
     41 H10         1.2853    3.4475    3.0271 H         1 <0>         0.1486
     42 H11         5.2782    1.8922    3.2848 H         1 <0>         0.1353
     43 H12         4.4841   -0.2713    2.4507 H         1 <0>         0.1442
     44 H13         5.7357    3.5534    3.9043 H         1 <0>         0.4333
     45 H14         4.8105    6.0269    5.1506 H         1 <0>         0.2024
     46 H15         7.5936    4.8428    4.7491 H         1 <0>         0.1251
     47 H16         7.2529    6.3401    5.6493 H         1 <0>         0.1420
     48 H17         5.7832    5.0760    7.1956 H         1 <0>         0.1259
     49 H18         6.1239    3.5787    6.2953 H         1 <0>         0.1130
     50 H19        -1.0568   -3.2545   -2.1925 H         1 <0>         0.4164
@<TRIPOS>BOND
     1    1    2 1
     2    1   32 1
     3    1   34 1
     4    1   37 1
     5    2    3 1
     6    2    6 2
     7    3    4 1
     8    3   13 1
     9    3   33 1
    10    4   10 1
    11    4    5 1
    12    4   35 1
    13    5    7 1
    14    5   36 1
    15    5    6 1
    16    7    8 1
    17    7   50 1
    18    8    9 2
    19    8   12 1
    20    9   10 1
    21   10   11 2
    22   12   38 1
    23   12   39 1
    24   13   14 1
    25   14   19 ar
    26   14   15 ar
    27   15   16 ar
    28   15   40 1
    29   16   17 ar
    30   16   41 1
    31   17   18 ar
    32   17   20 1
    33   18   19 ar
    34   18   42 1
    35   19   43 1
    36   20   21 2
    37   20   22 am
    38   22   23 1
    39   22   44 1
    40   23   24 1
    41   23   29 1
    42   23   45 1
    43   24   25 1
    44   24   46 1
    45   24   47 1
    46   25   26 1
    47   25   48 1
    48   25   49 1
    49   26   27 2
    50   26   28 1
    51   29   30 2
    52   29   31 1
@<TRIPOS>MOLECULE
CHEMBL336487__18
   49    51     0     0     0
SMALL
USER_CHARGES

@<TRIPOS>ATOM
      1 C1          0.0310   -1.0835    2.3271 C.3       1 <0>        -0.0912
      2 C2         -0.0785   -1.3182    0.8425 C.2       1 <0>         0.2731
      3 C3         -1.2503   -0.9504    0.0246 C.2       1 <0>        -0.5956
      4 C4         -0.6734   -0.8589   -1.3827 C.3       1 <0>        -0.0787
      5 C5          0.4197   -1.9526   -1.2956 C.3       1 <0>         0.3081
      6 N1          0.8447   -1.8632    0.1191 N.2       1 <0>        -0.6610
      7 N2         -0.2127   -3.2656   -1.4826 N.pl3     1 <0>        -0.7286
      8 C6         -1.1440   -3.4463   -2.4569 C.2       1 <0>         0.6835
      9 N3         -1.8757   -2.4283   -2.8788 N.2       1 <0>        -0.6900
     10 C7         -1.7008   -1.2041   -2.4084 C.2       1 <0>         0.5367
     11 O1         -2.4132   -0.3156   -2.8332 O.2       1 <0>        -0.5211
     12 N4         -1.3240   -4.6820   -3.0015 N.pl3     1 <0>        -0.8347
     13 S1         -2.8151   -0.6973    0.5175 S.3       1 <0>         0.0782
     14 C8         -2.8635    1.0176    0.9192 C.ar      1 <0>        -0.1100
     15 C9         -1.7538    1.8255    0.6642 C.ar      1 <0>        -0.1301
     16 C10        -1.7909    3.1651    0.9777 C.ar      1 <0>        -0.0553
     17 C11        -2.9396    3.7165    1.5512 C.ar      1 <0>        -0.1531
     18 C12        -4.0500    2.9074    1.8061 C.ar      1 <0>        -0.0744
     19 C13        -4.0136    1.5691    1.4869 C.ar      1 <0>        -0.1371
     20 C14        -2.9800    5.1545    1.8884 C.2       1 <0>         0.5545
     21 O2         -2.0137    5.8581    1.6669 O.2       1 <0>        -0.5659
     22 N5         -4.0881    5.6860    2.4415 N.am      1 <0>        -0.6842
     23 C15        -4.1282    7.1118    2.7759 C.3       1 <0>         0.0757
     24 C16        -5.1449    7.3448    3.8953 C.3       1 <0>        -0.0802
     25 C17        -4.6702    6.6434    5.1695 C.3       1 <0>        -0.1776
     26 C18        -5.6716    6.8729    6.2720 C.2       1 <0>         0.4930
     27 O3         -6.6722    7.5359    6.0584 O.co2     1 <0>        -0.7006
     28 O4         -5.4811    6.3955    7.3776 O.co2     1 <0>        -0.7219
     29 C19        -4.5320    7.9022    1.5580 C.2       1 <0>         0.4984
     30 O5         -5.2629    7.4010    0.7207 O.co2     1 <0>        -0.6968
     31 O6         -4.1278    9.0429    1.4100 O.co2     1 <0>        -0.7092
     32 H1          0.9607   -1.5168    2.6959 H         1 <0>         0.0513
     33 H2          0.0251   -0.0120    2.5269 H         1 <0>         0.0691
     34 H3         -0.8137   -1.5520    2.8322 H         1 <0>         0.0693
     35 H4         -0.2475    0.1266   -1.5714 H         1 <0>         0.0593
     36 H5          1.2423   -1.7760   -1.9886 H         1 <0>         0.0739
     37 H6         -0.7886   -5.4302   -2.6942 H         1 <0>         0.4004
     38 H7          0.0356   -4.0071   -0.9086 H         1 <0>         0.3894
     39 H8         -0.8659    1.3990    0.2213 H         1 <0>         0.1218
     40 H9         -0.9322    3.7898    0.7808 H         1 <0>         0.1181
     41 H10        -4.9380    3.3329    2.2496 H         1 <0>         0.1167
     42 H11        -4.8732    0.9445    1.6797 H         1 <0>         0.1137
     43 H12        -4.8591    5.1246    2.6183 H         1 <0>         0.3907
     44 H13        -3.1416    7.4350    3.1081 H         1 <0>         0.0741
     45 H14        -5.2398    8.4143    4.0831 H         1 <0>         0.0683
     46 H15        -6.1124    6.9409    3.5972 H         1 <0>         0.0588
     47 H16        -4.5752    5.5739    4.9817 H         1 <0>         0.0546
     48 H17        -3.7026    7.0473    5.4676 H         1 <0>         0.0517
     49 H18        -1.9877   -4.8137   -3.6966 H         1 <0>         0.4150
@<TRIPOS>BOND
     1    1    2 1
     2    1   32 1
     3    1   33 1
     4    1   34 1
     5    2    6 2
     6    2    3 1
     7    3   13 1
     8    3    4 1
     9    4   10 1
    10    4    5 1
    11    4   35 1
    12    5    6 1
    13    5   36 1
    14    5    7 1
    15    7   38 1
    16    7    8 1
    17    8   12 1
    18    8    9 2
    19    9   10 1
    20   10   11 2
    21   12   37 1
    22   12   49 1
    23   13   14 1
    24   14   19 ar
    25   14   15 ar
    26   15   16 ar
    27   15   39 1
    28   16   17 ar
    29   16   40 1
    30   17   18 ar
    31   17   20 1
    32   18   19 ar
    33   18   41 1
    34   19   42 1
    35   20   21 2
    36   20   22 am
    37   22   23 1
    38   22   43 1
    39   23   24 1
    40   23   29 1
    41   23   44 1
    42   24   25 1
    43   24   45 1
    44   24   46 1
    45   25   26 1
    46   25   47 1
    47   25   48 1
    48   26   27 2
    49   26   28 1
    50   29   30 2
    51   29   31 1
@<TRIPOS>MOLECULE
CHEMBL336487__19
   49    51     0     0     0
SMALL
NO_CHARGES

@<TRIPOS>ATOM
      1 C1          0.2852   -2.6946   -0.6823 C.3       1 <0>        -0.1049
      2 C2          0.5701   -2.1797    0.7051 C.2       1 <0>         0.2009
      3 C3          0.1247   -0.8284    1.2329 C.3       1 <0>        -0.1127
      4 C4          1.1109   -0.5848    2.4142 C.3       1 <0>        -0.1823
      5 C5          1.3322   -2.0564    2.8452 C.3       1 <0>         0.2870
      6 N1          1.2153   -2.8230    1.6011 N.2       1 <0>        -0.4876
      7 N2          2.6581   -2.1990    3.4375 N.pl3     1 <0>        -0.6983
      8 C6          3.7367   -1.6205    2.8374 C.2       1 <0>         0.5660
      9 N3          3.5716   -0.5560    2.0701 N.2       1 <0>        -0.5240
     10 C7          2.3828   -0.0310    1.8329 C.2       1 <0>         0.4898
     11 O1          2.3136    0.9448    1.1116 O.2       1 <0>        -0.4295
     12 N4          4.9826   -2.1377    3.0281 N.2       1 <0>        -0.4489
     13 S1         -1.5873   -0.9019    1.8280 S.3       1 <0>        -0.0265
     14 C8         -1.9847    0.7759    2.1913 C.ar      1 <0>        -0.0524
     15 C9         -1.0839    1.7888    1.8705 C.ar      1 <0>        -0.1405
     16 C10        -1.3906    3.0950    2.1516 C.ar      1 <0>        -0.0153
     17 C11        -2.6091    3.4102    2.7609 C.ar      1 <0>        -0.1591
     18 C12        -3.5114    2.3913    3.0817 C.ar      1 <0>        -0.0559
     19 C13        -3.2016    1.0873    2.7935 C.ar      1 <0>        -0.1007
     20 C14        -2.9417    4.8144    3.0649 C.2       1 <0>         0.5512
     21 O2         -2.1560    5.6996    2.7858 O.2       1 <0>        -0.4541
     22 N5         -4.1165    5.1167    3.6522 N.am      1 <0>        -0.5870
     23 C15        -4.4469    6.5117    3.9542 C.3       1 <0>         0.1807
     24 C16        -5.4481    6.5598    5.1102 C.3       1 <0>        -0.1170
     25 C17        -4.7885    6.0162    6.3792 C.3       1 <0>        -0.1062
     26 C18        -5.7746    6.0637    7.5178 C.2       1 <0>         0.5082
     27 O3         -6.9006    6.4926    7.3315 O.co2     1 <0>        -0.5072
     28 O4         -5.4464    5.6732    8.6252 O.co2     1 <0>        -0.4871
     29 C19        -5.0542    7.1591    2.7364 C.2       1 <0>         0.5247
     30 O5         -5.6919    6.4878    1.9432 O.co2     1 <0>        -0.3769
     31 O6         -4.9079    8.3542    2.5444 O.co2     1 <0>        -0.3655
     32 H1          1.0454   -2.3246   -1.3703 H         1 <0>         0.0956
     33 H2          0.2375   -0.0585    0.4696 H         1 <0>         0.1377
     34 H3          0.3007   -3.7844   -0.6756 H         1 <0>         0.0938
     35 H4          0.6946    0.0465    3.1992 H         1 <0>         0.1447
     36 H5          0.5656   -2.3614    3.5576 H         1 <0>         0.1443
     37 H6         -0.6964   -2.3471   -1.0043 H         1 <0>         0.0924
     38 H7          5.7495   -1.7254    2.6006 H         1 <0>         0.3805
     39 H8         -0.1428    1.5448    1.4003 H         1 <0>         0.1448
     40 H9         -0.6916    3.8799    1.9030 H         1 <0>         0.1485
     41 H10        -4.4533    2.6318    3.5524 H         1 <0>         0.1365
     42 H11        -3.9001    0.3004    3.0370 H         1 <0>         0.1460
     43 H12        -4.7433    4.4107    3.8749 H         1 <0>         0.4333
     44 H13        -3.5403    7.0469    4.2363 H         1 <0>         0.2029
     45 H14        -5.7616    7.5904    5.2766 H         1 <0>         0.1424
     46 H15        -6.3177    5.9509    4.8633 H         1 <0>         0.1255
     47 H16        -4.4749    4.9856    6.2128 H         1 <0>         0.1121
     48 H17        -3.9188    6.6252    6.6261 H         1 <0>         0.1254
     49 H18         2.7718   -2.7050    4.2572 H         1 <0>         0.4248
@<TRIPOS>BOND
     1    1    2 1
     2    1   32 1
     3    1   34 1
     4    1   37 1
     5    2    3 1
     6    2    6 2
     7    3    4 1
     8    3   13 1
     9    3   33 1
    10    4   10 1
    11    4    5 1
    12    4   35 1
    13    5    7 1
    14    5   36 1
    15    5    6 1
    16    7    8 1
    17    7   49 1
    18    8    9 2
    19    8   12 1
    20    9   10 1
    21   10   11 2
    22   12   38 1
    23   13   14 1
    24   14   19 ar
    25   14   15 ar
    26   15   16 ar
    27   15   39 1
    28   16   17 ar
    29   16   40 1
    30   17   18 ar
    31   17   20 1
    32   18   19 ar
    33   18   41 1
    34   19   42 1
    35   20   21 2
    36   20   22 am
    37   22   23 1
    38   22   43 1
    39   23   24 1
    40   23   29 1
    41   23   44 1
    42   24   25 1
    43   24   45 1
    44   24   46 1
    45   25   26 1
    46   25   47 1
    47   25   48 1
    48   26   27 2
    49   26   28 1
    50   29   30 2
    51   29   31 1
@<TRIPOS>MOLECULE
CHEMBL336487__20
   50    52     0     0     0
SMALL
NO_CHARGES

@<TRIPOS>ATOM
      1 C1          0.2852   -2.6946   -0.6823 C.3       1 <0>        -0.1046
      2 C2          0.5701   -2.1797    0.7051 C.2       1 <0>         0.2053
      3 C3          0.1247   -0.8284    1.2329 C.3       1 <0>        -0.1094
      4 C4          1.1109   -0.5848    2.4142 C.3       1 <0>        -0.1872
      5 C5          1.3322   -2.0564    2.8452 C.3       1 <0>         0.2910
      6 N1          1.2153   -2.8230    1.6011 N.2       1 <0>        -0.4933
      7 N2          2.6581   -2.1990    3.4375 N.pl3     1 <0>        -0.7329
      8 C6          3.7367   -1.6205    2.8374 C.2       1 <0>         0.7099
      9 N3          3.5716   -0.5560    2.0701 N.2       1 <0>        -0.6740
     10 C7          2.3828   -0.0310    1.8329 C.2       1 <0>         0.5319
     11 O1          2.3136    0.9448    1.1116 O.2       1 <0>        -0.4995
     12 N4          4.9826   -2.1377    3.0281 N.pl3     1 <0>        -0.8046
     13 S1         -1.5873   -0.9019    1.8280 S.3       1 <0>        -0.0375
     14 C8         -1.9847    0.7759    2.1913 C.ar      1 <0>        -0.0498
     15 C9         -1.0839    1.7888    1.8705 C.ar      1 <0>        -0.1389
     16 C10        -1.3906    3.0950    2.1516 C.ar      1 <0>        -0.0149
     17 C11        -2.6091    3.4102    2.7609 C.ar      1 <0>        -0.1593
     18 C12        -3.5114    2.3913    3.0817 C.ar      1 <0>        -0.0571
     19 C13        -3.2016    1.0873    2.7935 C.ar      1 <0>        -0.1023
     20 C14        -2.9417    4.8144    3.0649 C.2       1 <0>         0.5533
     21 O2         -2.1560    5.6996    2.7858 O.2       1 <0>        -0.4546
     22 N5         -4.1165    5.1167    3.6522 N.am      1 <0>        -0.5861
     23 C15        -4.4469    6.5117    3.9542 C.3       1 <0>         0.1808
     24 C16        -5.4481    6.5598    5.1102 C.3       1 <0>        -0.1165
     25 C17        -4.7885    6.0162    6.3792 C.3       1 <0>        -0.1082
     26 C18        -5.7746    6.0637    7.5178 C.2       1 <0>         0.5084
     27 O3         -6.9006    6.4926    7.3315 O.co2     1 <0>        -0.5093
     28 O4         -5.4464    5.6732    8.6252 O.co2     1 <0>        -0.4901
     29 C19        -5.0542    7.1591    2.7364 C.2       1 <0>         0.5259
     30 O5         -5.3662    6.4772    1.7751 O.co2     1 <0>        -0.3787
     31 O6         -5.2336    8.3648    2.7125 O.co2     1 <0>        -0.3652
     32 H1          1.0454   -2.3246   -1.3703 H         1 <0>         0.0958
     33 H2          0.2375   -0.0585    0.4696 H         1 <0>         0.1369
     34 H3          0.3007   -3.7844   -0.6756 H         1 <0>         0.0918
     35 H4          0.6946    0.0465    3.1992 H         1 <0>         0.1361
     36 H5          0.5656   -2.3614    3.5576 H         1 <0>         0.1370
     37 H6         -0.6964   -2.3471   -1.0043 H         1 <0>         0.0912
     38 H7          5.1027   -2.9182    3.5913 H         1 <0>         0.4158
     39 H8          5.7495   -1.7254    2.6006 H         1 <0>         0.4300
     40 H9         -0.1428    1.5448    1.4003 H         1 <0>         0.1478
     41 H10        -0.6916    3.8799    1.9030 H         1 <0>         0.1483
     42 H11        -4.4533    2.6318    3.5524 H         1 <0>         0.1353
     43 H12        -3.9001    0.3004    3.0370 H         1 <0>         0.1448
     44 H13        -4.7433    4.4107    3.8749 H         1 <0>         0.4327
     45 H14        -3.5403    7.0469    4.2363 H         1 <0>         0.2059
     46 H15        -5.7616    7.5904    5.2766 H         1 <0>         0.1445
     47 H16        -6.3177    5.9509    4.8633 H         1 <0>         0.1239
     48 H17        -4.4749    4.9856    6.2128 H         1 <0>         0.1119
     49 H18        -3.9188    6.6252    6.6261 H         1 <0>         0.1244
     50 H19         2.7718   -2.7050    4.2572 H         1 <0>         0.4137
@<TRIPOS>BOND
     1    1    2 1
     2    1   32 1
     3    1   34 1
     4    1   37 1
     5    2    3 1
     6    2    6 2
     7    3    4 1
     8    3   13 1
     9    3   33 1
    10    4   10 1
    11    4    5 1
    12    4   35 1
    13    5    7 1
    14    5   36 1
    15    5    6 1
    16    7    8 1
    17    7   50 1
    18    8    9 2
    19    8   12 1
    20    9   10 1
    21   10   11 2
    22   12   38 1
    23   12   39 1
    24   13   14 1
    25   14   19 ar
    26   14   15 ar
    27   15   16 ar
    28   15   40 1
    29   16   17 ar
    30   16   41 1
    31   17   18 ar
    32   17   20 1
    33   18   19 ar
    34   18   42 1
    35   19   43 1
    36   20   21 2
    37   20   22 am
    38   22   23 1
    39   22   44 1
    40   23   24 1
    41   23   29 1
    42   23   45 1
    43   24   25 1
    44   24   46 1
    45   24   47 1
    46   25   26 1
    47   25   48 1
    48   25   49 1
    49   26   27 2
    50   26   28 1
    51   29   30 2
    52   29   31 1
@<TRIPOS>MOLECULE
CHEMBL336487__21
   49    51     0     0     0
SMALL
USER_CHARGES

@<TRIPOS>ATOM
      1 C1          0.0310   -1.0835    2.3271 C.3       1 <0>        -0.0914
      2 C2         -0.0785   -1.3182    0.8425 C.2       1 <0>         0.2733
      3 C3         -1.2503   -0.9504    0.0246 C.2       1 <0>        -0.5955
      4 C4         -0.6734   -0.8589   -1.3827 C.3       1 <0>        -0.0783
      5 C5          0.4197   -1.9526   -1.2956 C.3       1 <0>         0.3080
      6 N1          0.8447   -1.8632    0.1191 N.2       1 <0>        -0.6613
      7 N2         -0.2127   -3.2656   -1.4826 N.pl3     1 <0>        -0.7286
      8 C6         -1.1440   -3.4463   -2.4569 C.2       1 <0>         0.6835
      9 N3         -1.8757   -2.4283   -2.8788 N.2       1 <0>        -0.6900
     10 C7         -1.7008   -1.2041   -2.4084 C.2       1 <0>         0.5368
     11 O1         -2.4132   -0.3156   -2.8332 O.2       1 <0>        -0.5214
     12 N4         -1.3240   -4.6820   -3.0015 N.pl3     1 <0>        -0.8348
     13 S1         -2.8151   -0.6973    0.5175 S.3       1 <0>         0.0771
     14 C8         -2.8635    1.0176    0.9192 C.ar      1 <0>        -0.1107
     15 C9         -1.7538    1.8255    0.6642 C.ar      1 <0>        -0.1298
     16 C10        -1.7909    3.1651    0.9777 C.ar      1 <0>        -0.0556
     17 C11        -2.9396    3.7165    1.5512 C.ar      1 <0>        -0.1504
     18 C12        -4.0500    2.9074    1.8061 C.ar      1 <0>        -0.0754
     19 C13        -4.0136    1.5691    1.4869 C.ar      1 <0>        -0.1372
     20 C14        -2.9800    5.1545    1.8884 C.2       1 <0>         0.5614
     21 O2         -2.0137    5.8581    1.6669 O.2       1 <0>        -0.5675
     22 N5         -4.0881    5.6860    2.4415 N.am      1 <0>        -0.6846
     23 C15        -4.1282    7.1118    2.7759 C.3       1 <0>         0.0744
     24 C16        -5.5805    7.5932    2.7839 C.3       1 <0>        -0.0778
     25 C17        -6.1590    7.4924    1.3711 C.3       1 <0>        -0.1789
     26 C18        -7.5894    7.9665    1.3790 C.2       1 <0>         0.4928
     27 O3         -8.0990    8.3495    2.4183 O.co2     1 <0>        -0.7008
     28 O4         -8.2372    7.9670    0.3461 O.co2     1 <0>        -0.7217
     29 C19        -3.5206    7.3255    4.1383 C.2       1 <0>         0.4958
     30 O5         -3.0937    6.3750    4.7714 O.co2     1 <0>        -0.6941
     31 O6         -3.4560    8.4490    4.6076 O.co2     1 <0>        -0.7091
     32 H1          0.9607   -1.5168    2.6959 H         1 <0>         0.0512
     33 H2          0.0251   -0.0120    2.5269 H         1 <0>         0.0697
     34 H3         -0.8137   -1.5520    2.8322 H         1 <0>         0.0691
     35 H4         -0.2475    0.1266   -1.5714 H         1 <0>         0.0591
     36 H5          1.2423   -1.7760   -1.9886 H         1 <0>         0.0738
     37 H6         -0.7886   -5.4302   -2.6942 H         1 <0>         0.4004
     38 H7          0.0356   -4.0071   -0.9086 H         1 <0>         0.3894
     39 H8         -0.8659    1.3990    0.2213 H         1 <0>         0.1215
     40 H9         -0.9322    3.7898    0.7808 H         1 <0>         0.1179
     41 H10        -4.9380    3.3329    2.2496 H         1 <0>         0.1157
     42 H11        -4.8732    0.9445    1.6797 H         1 <0>         0.1132
     43 H12        -4.8591    5.1246    2.6183 H         1 <0>         0.3884
     44 H13        -3.5628    7.6751    2.0335 H         1 <0>         0.0742
     45 H14        -6.1656    6.9713    3.4614 H         1 <0>         0.0534
     46 H15        -5.6178    8.6298    3.1187 H         1 <0>         0.0749
     47 H16        -5.5738    8.1142    0.6936 H         1 <0>         0.0513
     48 H17        -6.1216    6.4557    1.0363 H         1 <0>         0.0538
     49 H18        -1.9877   -4.8137   -3.6966 H         1 <0>         0.4150
@<TRIPOS>BOND
     1    1    2 1
     2    1   32 1
     3    1   33 1
     4    1   34 1
     5    2    6 2
     6    2    3 1
     7    3   13 1
     8    3    4 1
     9    4   10 1
    10    4    5 1
    11    4   35 1
    12    5    6 1
    13    5   36 1
    14    5    7 1
    15    7   38 1
    16    7    8 1
    17    8   12 1
    18    8    9 2
    19    9   10 1
    20   10   11 2
    21   12   37 1
    22   12   49 1
    23   13   14 1
    24   14   19 ar
    25   14   15 ar
    26   15   16 ar
    27   15   39 1
    28   16   17 ar
    29   16   40 1
    30   17   18 ar
    31   17   20 1
    32   18   19 ar
    33   18   41 1
    34   19   42 1
    35   20   21 2
    36   20   22 am
    37   22   23 1
    38   22   43 1
    39   23   24 1
    40   23   29 1
    41   23   44 1
    42   24   25 1
    43   24   45 1
    44   24   46 1
    45   25   26 1
    46   25   47 1
    47   25   48 1
    48   26   27 2
    49   26   28 1
    50   29   30 2
    51   29   31 1
@<TRIPOS>MOLECULE
CHEMBL336487__22
   49    51     0     0     0
SMALL
NO_CHARGES

@<TRIPOS>ATOM
      1 C1          1.9124   -2.1450    0.1180 C.3       1 <0>        -0.1224
      2 C2          0.5445   -2.2156    0.7464 C.2       1 <0>         0.1791
      3 C3         -0.0839   -1.1091    1.5733 C.3       1 <0>        -0.2525
      4 C4         -1.1593   -1.8746    2.4010 C.3       1 <0>        -0.1539
      5 C5         -1.5026   -2.9835    1.3750 C.3       1 <0>         0.2987
      6 N1         -0.2483   -3.2133    0.6518 N.2       1 <0>        -0.4488
      7 N2         -1.9401   -4.1840    2.0797 N.pl3     1 <0>        -0.7153
      8 C6         -1.2500   -4.6216    3.1708 C.2       1 <0>         0.5379
      9 N3         -0.5497   -3.7643    3.8948 N.2       1 <0>        -0.4348
     10 C7         -0.4657   -2.4818    3.5895 C.2       1 <0>         0.3776
     11 O1          0.2030   -1.7590    4.3020 O.2       1 <0>        -0.2834
     12 N4         -1.2819   -5.9393    3.5152 N.2       1 <0>        -0.5648
     13 S1          1.1456   -0.3442    2.6660 S.3       1 <0>         0.7347
     14 C8          0.3020    1.0421    3.3523 C.ar      1 <0>        -0.2683
     15 C9         -0.9780    1.3665    2.9086 C.ar      1 <0>        -0.0633
     16 C10        -1.6369    2.4442    3.4411 C.ar      1 <0>        -0.0571
     17 C11        -1.0229    3.2183    4.4306 C.ar      1 <0>        -0.0121
     18 C12         0.2621    2.8903    4.8741 C.ar      1 <0>        -0.0875
     19 C13         0.9141    1.8083    4.3417 C.ar      1 <0>        -0.0064
     20 C14        -1.7290    4.3787    5.0051 C.2       1 <0>         0.5410
     21 O2         -2.8462    4.6631    4.6183 O.2       1 <0>        -0.4902
     22 N5         -1.1360    5.1238    5.9588 N.am      1 <0>        -0.6597
     23 C15        -1.8374    6.2765    6.5295 C.3       1 <0>         0.1301
     24 C16        -1.2963    6.5594    7.9323 C.3       1 <0>        -0.1061
     25 C17        -1.6306    5.3851    8.8543 C.3       1 <0>        -0.1295
     26 C18        -1.0976    5.6638   10.2361 C.2       1 <0>         0.4933
     27 O3         -0.5053    6.7051   10.4625 O.co2     1 <0>        -0.5578
     28 O4         -1.2587    4.8479   11.1277 O.co2     1 <0>        -0.5597
     29 C19        -1.6171    7.4827    5.6534 C.2       1 <0>         0.4993
     30 O5         -0.9373    7.3883    4.6457 O.co2     1 <0>        -0.5392
     31 O6         -2.1188    8.5530    5.9522 O.co2     1 <0>        -0.5192
     32 H1          2.6637   -2.4461    0.8481 H         1 <0>         0.1035
     33 H2         -0.5496   -0.3624    0.9303 H         1 <0>         0.2001
     34 H3          1.9524   -2.8141   -0.7416 H         1 <0>         0.1133
     35 H4         -2.0104   -1.2533    2.6798 H         1 <0>         0.1737
     36 H5         -2.2814   -2.6407    0.6938 H         1 <0>         0.1601
     37 H6          2.1106   -1.1237   -0.2072 H         1 <0>         0.0976
     38 H7         -0.7904   -6.2496    4.2918 H         1 <0>         0.3712
     39 H8         -1.4516    0.7685    2.1441 H         1 <0>         0.1479
     40 H9         -2.6291    2.6954    3.0964 H         1 <0>         0.1696
     41 H10         0.7387    3.4864    5.6382 H         1 <0>         0.1636
     42 H11         1.9047    1.5518    4.6870 H         1 <0>         0.1653
     43 H12        -0.2448    4.8970    6.2673 H         1 <0>         0.4097
     44 H13        -2.9041    6.0601    6.5883 H         1 <0>         0.1397
     45 H14        -0.2149    6.6882    7.8855 H         1 <0>         0.0923
     46 H15        -1.7540    7.4688    8.3217 H         1 <0>         0.1175
     47 H16        -2.7119    5.2563    8.9012 H         1 <0>         0.0972
     48 H17        -1.1729    4.4757    8.4649 H         1 <0>         0.0859
     49 H18        -2.7213   -4.6700    1.7724 H         1 <0>         0.4317
@<TRIPOS>BOND
     1    1    2 1
     2    1   32 1
     3    1   34 1
     4    1   37 1
     5    2    3 1
     6    2    6 2
     7    3    4 1
     8    3   13 1
     9    3   33 1
    10    4   10 1
    11    4    5 1
    12    4   35 1
    13    5    7 1
    14    5   36 1
    15    5    6 1
    16    7    8 1
    17    7   49 1
    18    8    9 2
    19    8   12 1
    20    9   10 1
    21   10   11 2
    22   12   38 1
    23   13   14 1
    24   14   19 ar
    25   14   15 ar
    26   15   16 ar
    27   15   39 1
    28   16   17 ar
    29   16   40 1
    30   17   18 ar
    31   17   20 1
    32   18   19 ar
    33   18   41 1
    34   19   42 1
    35   20   21 2
    36   20   22 am
    37   22   23 1
    38   22   43 1
    39   23   24 1
    40   23   29 1
    41   23   44 1
    42   24   25 1
    43   24   45 1
    44   24   46 1
    45   25   26 1
    46   25   47 1
    47   25   48 1
    48   26   27 2
    49   26   28 1
    50   29   30 2
    51   29   31 1
@<TRIPOS>MOLECULE
CHEMBL336487__23
   50    52     0     0     0
SMALL
NO_CHARGES

@<TRIPOS>ATOM
      1 C1          1.9124   -2.1450    0.1180 C.3       1 <0>        -0.1080
      2 C2          0.5445   -2.2156    0.7464 C.2       1 <0>         0.2041
      3 C3         -0.0839   -1.1091    1.5733 C.3       1 <0>        -0.1324
      4 C4         -1.1593   -1.8746    2.4010 C.3       1 <0>        -0.1937
      5 C5         -1.5026   -2.9835    1.3750 C.3       1 <0>         0.2949
      6 N1         -0.2483   -3.2133    0.6518 N.2       1 <0>        -0.4944
      7 N2         -1.9401   -4.1840    2.0797 N.pl3     1 <0>        -0.7347
      8 C6         -1.2500   -4.6216    3.1708 C.2       1 <0>         0.7024
      9 N3         -0.5497   -3.7643    3.8948 N.2       1 <0>        -0.6675
     10 C7         -0.4657   -2.4818    3.5895 C.2       1 <0>         0.5021
     11 O1          0.2030   -1.7590    4.3020 O.2       1 <0>        -0.4531
     12 N4         -1.2819   -5.9393    3.5152 N.pl3     1 <0>        -0.8070
     13 S1          1.1456   -0.3442    2.6660 S.3       1 <0>         0.0771
     14 C8          0.3020    1.0421    3.3523 C.ar      1 <0>        -0.0398
     15 C9         -0.9780    1.3665    2.9086 C.ar      1 <0>        -0.1524
     16 C10        -1.6369    2.4442    3.4411 C.ar      1 <0>        -0.0130
     17 C11        -1.0229    3.2183    4.4306 C.ar      1 <0>        -0.1658
     18 C12         0.2621    2.8903    4.8741 C.ar      1 <0>        -0.0506
     19 C13         0.9141    1.8083    4.3417 C.ar      1 <0>        -0.1030
     20 C14        -1.7290    4.3787    5.0051 C.2       1 <0>         0.5495
     21 O2         -2.8462    4.6631    4.6183 O.2       1 <0>        -0.4670
     22 N5         -1.1360    5.1238    5.9588 N.am      1 <0>        -0.5782
     23 C15        -1.8374    6.2765    6.5295 C.3       1 <0>         0.1758
     24 C16        -1.2963    6.5594    7.9323 C.3       1 <0>        -0.1153
     25 C17        -1.6306    5.3851    8.8543 C.3       1 <0>        -0.1100
     26 C18        -1.0976    5.6638   10.2361 C.2       1 <0>         0.5077
     27 O3         -0.5053    6.7051   10.4625 O.co2     1 <0>        -0.5184
     28 O4         -1.2587    4.8479   11.1277 O.co2     1 <0>        -0.4980
     29 C19        -1.6171    7.4827    5.6534 C.2       1 <0>         0.5263
     30 O5         -2.4704    8.3510    5.5857 O.co2     1 <0>        -0.3782
     31 O6         -0.5857    7.5903    5.0122 O.co2     1 <0>        -0.3880
     32 H1          2.6637   -2.4461    0.8481 H         1 <0>         0.0964
     33 H2         -0.5496   -0.3624    0.9303 H         1 <0>         0.1366
     34 H3          1.9524   -2.8141   -0.7416 H         1 <0>         0.0929
     35 H4         -2.0104   -1.2533    2.6798 H         1 <0>         0.1361
     36 H5         -2.2814   -2.6407    0.6938 H         1 <0>         0.1334
     37 H6          2.1106   -1.1237   -0.2072 H         1 <0>         0.0922
     38 H7         -1.7960   -6.5671    2.9838 H         1 <0>         0.4145
     39 H8         -0.7904   -6.2496    4.2918 H         1 <0>         0.4294
     40 H9         -1.4516    0.7685    2.1441 H         1 <0>         0.1314
     41 H10        -2.6291    2.6954    3.0964 H         1 <0>         0.1453
     42 H11         0.7387    3.4864    5.6382 H         1 <0>         0.1350
     43 H12         1.9047    1.5518    4.6870 H         1 <0>         0.1444
     44 H13        -0.2448    4.8970    6.2673 H         1 <0>         0.4328
     45 H14        -2.9041    6.0601    6.5883 H         1 <0>         0.2006
     46 H15        -0.2149    6.6882    7.8855 H         1 <0>         0.1234
     47 H16        -1.7540    7.4688    8.3217 H         1 <0>         0.1402
     48 H17        -2.7119    5.2563    8.9012 H         1 <0>         0.1222
     49 H18        -1.1729    4.4757    8.4649 H         1 <0>         0.1097
     50 H19        -2.7213   -4.6700    1.7724 H         1 <0>         0.4125
@<TRIPOS>BOND
     1    1    2 1
     2    1   32 1
     3    1   34 1
     4    1   37 1
     5    2    3 1
     6    2    6 2
     7    3    4 1
     8    3   13 1
     9    3   33 1
    10    4   10 1
    11    4    5 1
    12    4   35 1
    13    5    7 1
    14    5   36 1
    15    5    6 1
    16    7    8 1
    17    7   50 1
    18    8    9 2
    19    8   12 1
    20    9   10 1
    21   10   11 2
    22   12   38 1
    23   12   39 1
    24   13   14 1
    25   14   19 ar
    26   14   15 ar
    27   15   16 ar
    28   15   40 1
    29   16   17 ar
    30   16   41 1
    31   17   18 ar
    32   17   20 1
    33   18   19 ar
    34   18   42 1
    35   19   43 1
    36   20   21 2
    37   20   22 am
    38   22   23 1
    39   22   44 1
    40   23   24 1
    41   23   29 1
    42   23   45 1
    43   24   25 1
    44   24   46 1
    45   24   47 1
    46   25   26 1
    47   25   48 1
    48   25   49 1
    49   26   27 2
    50   26   28 1
    51   29   30 2
    52   29   31 1
@<TRIPOS>MOLECULE
CHEMBL169506
   55    58     0     0     0
SMALL
USER_CHARGES

@<TRIPOS>ATOM
      1 C1         -0.0184    1.5028    0.0103 C.3       1 <0>        -0.1119
      2 C2          0.0021   -0.0041    0.0020 C.2       1 <0>         0.3967
      3 N1          0.0048   -0.6148   -1.1450 N.2       1 <0>        -0.5254
      4 C3          0.0227   -1.9611   -1.2330 C.ar      1 <0>         0.1850
      5 C4          0.0260   -2.6149   -2.4783 C.ar      1 <0>        -0.1162
      6 C5          0.0444   -3.9657   -2.5660 C.ar      1 <0>        -0.0519
      7 C6          0.0606   -4.7762   -1.4121 C.ar      1 <0>        -0.0665
      8 C7          0.0797   -6.1761   -1.5078 C.ar      1 <0>        -0.1004
      9 C8          0.0954   -6.9314   -0.3736 C.ar      1 <0>        -0.0979
     10 C9          0.0929   -6.3351    0.8837 C.ar      1 <0>        -0.0844
     11 C10         0.0745   -4.9773    1.0131 C.ar      1 <0>        -0.0908
     12 C11         0.0581   -4.1723   -0.1305 C.ar      1 <0>         0.0040
     13 C12         0.0387   -2.7179   -0.0472 C.ar      1 <0>        -0.1993
     14 C13         0.0353   -2.0080    1.2317 C.2       1 <0>         0.5430
     15 N2          0.0222   -0.6546    1.1925 N.am      1 <0>        -0.6435
     16 O1          0.0487   -2.6106    2.2903 O.2       1 <0>        -0.5019
     17 C14         0.1100   -7.2001    2.1176 C.3       1 <0>         0.1557
     18 N3          1.4967   -7.4617    2.5113 N.pl3     1 <0>        -0.6943
     19 C15         1.7653   -8.2400    3.6254 C.2       1 <0>         0.0822
     20 C16         2.9945   -8.5829    4.1426 C.2       1 <0>        -0.2836
     21 C17         3.0386   -9.3697    5.2634 C.2       1 <0>        -0.0352
     22 C18         1.8104   -9.7558    5.7837 C.2       1 <0>        -0.2572
     23 S1          0.6664   -8.9767    4.6607 S.3       1 <0>         0.1926
     24 C19         1.5368  -10.5583    6.9192 C.2       1 <0>         0.6007
     25 O2          2.4540  -11.0086    7.5818 O.2       1 <0>        -0.5534
     26 N4          0.2615  -10.8231    7.2657 N.am      1 <0>        -0.6802
     27 C20        -0.0213  -11.6527    8.4396 C.3       1 <0>         0.0739
     28 H1          0.7264  -11.4604    9.2091 H         1 <0>         0.0784
     29 C21        -1.4107  -11.3119    8.9821 C.3       1 <0>        -0.0804
     30 C22        -1.4189   -9.8701    9.4940 C.3       1 <0>        -0.1783
     31 C23        -2.7874   -9.5344   10.0283 C.2       1 <0>         0.4914
     32 O3         -3.6740  -10.3709   10.0022 O.co2     1 <0>        -0.6976
     33 O4         -3.0079   -8.4264   10.4868 O.co2     1 <0>        -0.7208
     34 C24         0.0225  -13.1075    8.0490 C.2       1 <0>         0.4959
     35 O5          0.2673  -13.4222    6.8968 O.co2     1 <0>        -0.6963
     36 O6         -0.1869  -13.9698    8.8851 O.co2     1 <0>        -0.7015
     37 H2          1.0042    1.8801    0.0026 H         1 <0>         0.0994
     38 H3         -0.5455    1.8639   -0.8728 H         1 <0>         0.1044
     39 H4         -0.5286    1.8543    0.9071 H         1 <0>         0.0880
     40 H5          0.0132   -2.0267   -3.3839 H         1 <0>         0.1396
     41 H6          0.0464   -4.4323   -3.5400 H         1 <0>         0.1381
     42 H7          0.0816   -6.6531   -2.4767 H         1 <0>         0.1337
     43 H8          0.1097   -8.0085   -0.4517 H         1 <0>         0.1316
     44 H9          0.0724   -4.5259    1.9943 H         1 <0>         0.1589
     45 H10        -0.4072   -6.6870    2.9282 H         1 <0>         0.0795
     46 H11        -0.3919   -8.1443    1.9064 H         1 <0>         0.0797
     47 H12         2.2267   -7.0898    1.9920 H         1 <0>         0.4053
     48 H13         3.9049   -8.2391    3.6743 H         1 <0>         0.1240
     49 H14         3.9722   -9.6717    5.7147 H         1 <0>         0.1433
     50 H15        -0.4690  -10.4644    6.7379 H         1 <0>         0.3862
     51 H16        -2.1479  -11.4191    8.1864 H         1 <0>         0.0546
     52 H17        -1.6577  -11.9891    9.7998 H         1 <0>         0.0788
     53 H18        -0.6817   -9.7629   10.2898 H         1 <0>         0.0524
     54 H19        -1.1719   -9.1929    8.6764 H         1 <0>         0.0505
     55 H20         0.0232   -0.1477    2.0195 H         1 <0>         0.4209
@<TRIPOS>BOND
     1    1    2 1
     2    1   37 1
     3    1   38 1
     4    1   39 1
     5    2   15 1
     6    2    3 2
     7    3    4 1
     8    4   13 ar
     9    4    5 ar
    10    5    6 ar
    11    5   40 1
    12    6    7 ar
    13    6   41 1
    14    7   12 ar
    15    7    8 ar
    16    8    9 ar
    17    8   42 1
    18    9   10 ar
    19    9   43 1
    20   10   11 ar
    21   10   17 1
    22   11   12 ar
    23   11   44 1
    24   12   13 ar
    25   13   14 1
    26   14   15 am
    27   14   16 2
    28   15   55 1
    29   17   18 1
    30   17   45 1
    31   17   46 1
    32   18   19 1
    33   18   47 1
    34   19   23 1
    35   19   20 2
    36   20   21 1
    37   20   48 1
    38   21   22 2
    39   21   49 1
    40   22   23 1
    41   22   24 1
    42   24   25 2
    43   24   26 am
    44   26   27 1
    45   26   50 1
    46   27   28 1
    47   27   29 1
    48   27   34 1
    49   29   30 1
    50   29   51 1
    51   29   52 1
    52   30   31 1
    53   30   53 1
    54   30   54 1
    55   31   32 2
    56   31   33 1
    57   34   35 2
    58   34   36 1
@<TRIPOS>MOLECULE
CHEMBL126914
   62    65     0     0     0
SMALL
USER_CHARGES

@<TRIPOS>ATOM
      1 C1         -3.0009   -0.8810   -1.3772 C.3       1 <0>        -0.1231
      2 C2         -2.3070    0.3696   -1.8521 C.ar      1 <0>        -0.0313
      3 C3         -1.6097    0.3513   -3.0394 C.ar      1 <0>        -0.1111
      4 C4         -0.9665    1.5088   -3.4814 C.ar      1 <0>         0.1567
      5 C5         -1.0419    2.6838   -2.7006 C.ar      1 <0>        -0.2013
      6 C6         -1.7525    2.6812   -1.5025 C.ar      1 <0>        -0.0168
      7 C7         -2.3834    1.5276   -1.0898 C.ar      1 <0>        -0.1297
      8 C8         -3.1585    1.5215    0.2025 C.3       1 <0>         0.1679
      9 N1         -3.0305    2.8269    0.8549 N.pl3     1 <0>        -0.6178
     10 C9         -3.9908    3.8923    0.5564 C.3       1 <0>         0.2280
     11 C10        -5.1223    3.8098    1.4943 C.1       1 <0>        -0.2074
     12 C11        -6.0248    3.7441    2.2423 C.1       1 <0>        -0.1862
     13 C12        -1.9976    3.0548    1.7575 C.ar      1 <0>         0.2487
     14 C13        -1.0184    2.0833    1.9523 C.ar      1 <0>        -0.2037
     15 C14        -0.0009    2.2994    2.8367 C.ar      1 <0>        -0.0032
     16 C15         0.0632    3.4995    3.5519 C.ar      1 <0>        -0.1981
     17 C16        -0.9193    4.4788    3.3584 C.ar      1 <0>         0.2005
     18 C17        -1.9417    4.2544    2.4590 C.ar      1 <0>        -0.2419
     19 F1         -0.8636    5.6405    4.0459 F         1 <0>        -0.1147
     20 C18         1.1611    3.7328    4.5069 C.2       1 <0>         0.5615
     21 O1          1.2151    4.7769    5.1280 O.2       1 <0>        -0.5477
     22 N2          2.1052    2.7889    4.6920 N.am      1 <0>        -0.6847
     23 C19         3.1966    3.0208    5.6414 C.3       1 <0>         0.1013
     24 C20         4.4065    2.1724    5.2447 C.3       1 <0>        -0.4416
     25 S1          5.0389    2.7341    3.6400 S.o       1 <0>         1.3500
     26 O2          4.1070    2.4002    2.6205 O.2       1 <0>        -0.8680
     27 C21         6.4107    1.6734    3.3275 C.2       1 <0>        -0.4404
     28 C22         7.7399    1.8844    3.7013 C.2       1 <0>        -0.0663
     29 N3          8.4072    0.8414    3.2620 N.2       1 <0>        -0.3765
     30 N4          7.5879    0.0470    2.6692 N.2       1 <0>        -0.2159
     31 N5          6.3921    0.5191    2.7003 N.2       1 <0>        -0.3041
     32 C23         2.7467    2.6371    7.0275 C.2       1 <0>         0.5011
     33 O3          1.6937    2.0428    7.1840 O.co2     1 <0>        -0.6908
     34 O4          3.4357    2.9210    7.9925 O.co2     1 <0>        -0.6982
     35 C24        -0.3530    3.8856   -3.1940 C.2       1 <0>         0.5497
     36 N6          0.3105    3.7850   -4.3693 N.am      1 <0>        -0.6543
     37 C25         0.3296    2.6121   -5.0548 C.2       1 <0>         0.3933
     38 N7         -0.2684    1.5353   -4.6443 N.2       1 <0>        -0.5223
     39 C26         1.0839    2.5582   -6.3583 C.3       1 <0>        -0.1099
     40 O5         -0.3789    4.9304   -2.5699 O.2       1 <0>        -0.5037
     41 H1         -4.0506   -0.8471   -1.6690 H         1 <0>         0.0770
     42 H2         -2.5266   -1.7530   -1.8274 H         1 <0>         0.0732
     43 H3         -2.9275   -0.9474   -0.2917 H         1 <0>         0.0758
     44 H4         -1.5604   -0.5544   -3.6257 H         1 <0>         0.1388
     45 H5         -1.8119    3.5778   -0.9034 H         1 <0>         0.1423
     46 H6         -4.2095    1.3205   -0.0051 H         1 <0>         0.0914
     47 H7         -2.7633    0.7467    0.8595 H         1 <0>         0.0983
     48 H8         -3.5025    4.8612    0.6605 H         1 <0>         0.1035
     49 H9         -4.3557    3.7770   -0.4642 H         1 <0>         0.0987
     50 H10        -6.8320    3.6853    2.9112 H         1 <0>         0.2155
     51 H11        -1.0645    1.1553    1.4018 H         1 <0>         0.1295
     52 H12         0.7552    1.5425    2.9843 H         1 <0>         0.1381
     53 H13        -2.6996    5.0078    2.3029 H         1 <0>         0.1352
     54 H14         2.0620    1.9561    4.1966 H         1 <0>         0.3948
     55 H15         3.4721    4.0753    5.6277 H         1 <0>         0.0905
     56 H16         5.1862    2.2765    5.9992 H         1 <0>         0.1234
     57 H17         4.1086    1.1264    5.1720 H         1 <0>         0.0780
     58 H18         8.1376    2.7315    4.2403 H         1 <0>         0.1450
     59 H19         2.1163    2.2645   -6.1687 H         1 <0>         0.0993
     60 H20         0.6146    1.8299   -7.0198 H         1 <0>         0.1019
     61 H21         1.0664    3.5410   -6.8292 H         1 <0>         0.0844
     62 H22         0.7766    4.5574   -4.7257 H         1 <0>         0.4173
@<TRIPOS>BOND
     1    1   41 1
     2    1   42 1
     3    1   43 1
     4    1    2 1
     5    2    7 ar
     6    2    3 ar
     7    3   44 1
     8    3    4 ar
     9    4    5 ar
    10    4   38 1
    11    5   35 1
    12    5    6 ar
    13    6   45 1
    14    6    7 ar
    15    7    8 1
    16    8    9 1
    17    8   46 1
    18    8   47 1
    19    9   10 1
    20    9   13 1
    21   10   11 1
    22   10   48 1
    23   10   49 1
    24   11   12 3
    25   12   50 1
    26   13   18 ar
    27   13   14 ar
    28   14   15 ar
    29   14   51 1
    30   15   16 ar
    31   15   52 1
    32   16   17 ar
    33   16   20 1
    34   17   18 ar
    35   17   19 1
    36   18   53 1
    37   20   21 2
    38   20   22 am
    39   22   23 1
    40   22   54 1
    41   23   24 1
    42   23   32 1
    43   23   55 1
    44   24   25 1
    45   24   56 1
    46   24   57 1
    47   25   26 2
    48   25   27 1
    49   27   31 2
    50   27   28 1
    51   28   58 1
    52   28   29 2
    53   29   30 1
    54   30   31 1
    55   32   33 2
    56   32   34 1
    57   35   40 2
    58   35   36 am
    59   36   37 1
    60   36   62 1
    61   37   38 2
    62   37   39 1
    63   39   59 1
    64   39   60 1
    65   39   61 1
@<TRIPOS>MOLECULE
CHEMBL126914__1
   63    66     0     0     0
SMALL
USER_CHARGES

@<TRIPOS>ATOM
      1 C1         -3.0009   -0.8810   -1.3772 C.3       1 <0>        -0.1242
      2 C2         -2.3070    0.3696   -1.8521 C.ar      1 <0>        -0.0303
      3 C3         -1.6097    0.3513   -3.0394 C.ar      1 <0>        -0.1112
      4 C4         -0.9665    1.5088   -3.4814 C.ar      1 <0>         0.1573
      5 C5         -1.0419    2.6838   -2.7006 C.ar      1 <0>        -0.2024
      6 C6         -1.7525    2.6812   -1.5025 C.ar      1 <0>        -0.0178
      7 C7         -2.3834    1.5276   -1.0898 C.ar      1 <0>        -0.1301
      8 C8         -3.1585    1.5215    0.2025 C.3       1 <0>         0.1666
      9 N1         -3.0305    2.8269    0.8549 N.pl3     1 <0>        -0.6158
     10 C9         -3.9908    3.8923    0.5564 C.3       1 <0>         0.2278
     11 C10        -5.1223    3.8098    1.4943 C.1       1 <0>        -0.2139
     12 C11        -6.0248    3.7441    2.2423 C.1       1 <0>        -0.1783
     13 C12        -1.9976    3.0548    1.7575 C.ar      1 <0>         0.2559
     14 C13        -1.0184    2.0833    1.9523 C.ar      1 <0>        -0.2062
     15 C14        -0.0009    2.2994    2.8367 C.ar      1 <0>        -0.0041
     16 C15         0.0632    3.4995    3.5519 C.ar      1 <0>        -0.2080
     17 C16        -0.9193    4.4788    3.3584 C.ar      1 <0>         0.2052
     18 C17        -1.9417    4.2544    2.4590 C.ar      1 <0>        -0.2417
     19 F1         -0.8636    5.6405    4.0459 F         1 <0>        -0.1130
     20 C18         1.1611    3.7328    4.5069 C.2       1 <0>         0.5656
     21 O1          1.2151    4.7769    5.1280 O.2       1 <0>        -0.5380
     22 N2          2.1052    2.7889    4.6920 N.am      1 <0>        -0.6971
     23 C19         3.1966    3.0208    5.6414 C.3       1 <0>         0.0964
     24 C20         4.4065    2.1724    5.2447 C.3       1 <0>        -0.4355
     25 S1          5.0389    2.7341    3.6400 S.o       1 <0>         1.3757
     26 O2          4.1070    2.4002    2.6205 O.2       1 <0>        -0.8261
     27 C21         6.4107    1.6734    3.3275 C.2       1 <0>        -0.3424
     28 C22         7.7399    1.8844    3.7013 C.2       1 <0>         0.0409
     29 N3          8.4072    0.8414    3.2620 N.2       1 <0>        -0.2931
     30 H1          7.8372   -0.7956    2.2583 H         1 <0>         0.4656
     31 N4          7.5879    0.0470    2.6692 N.pl3     1 <0>        -0.2465
     32 N5          6.3921    0.5191    2.7003 N.2       1 <0>        -0.2195
     33 C23         2.7467    2.6371    7.0275 C.2       1 <0>         0.4993
     34 O3          1.6937    2.0428    7.1840 O.co2     1 <0>        -0.6800
     35 O4          3.4357    2.9210    7.9925 O.co2     1 <0>        -0.6922
     36 C24        -0.3530    3.8856   -3.1940 C.2       1 <0>         0.5494
     37 N6          0.3105    3.7850   -4.3693 N.am      1 <0>        -0.6545
     38 C25         0.3296    2.6121   -5.0548 C.2       1 <0>         0.3944
     39 N7         -0.2684    1.5353   -4.6443 N.2       1 <0>        -0.5225
     40 C26         1.0839    2.5582   -6.3583 C.3       1 <0>        -0.1109
     41 O5         -0.3789    4.9304   -2.5699 O.2       1 <0>        -0.5041
     42 H2         -4.0506   -0.8471   -1.6690 H         1 <0>         0.0791
     43 H3         -2.5266   -1.7530   -1.8274 H         1 <0>         0.0735
     44 H4         -2.9275   -0.9474   -0.2917 H         1 <0>         0.0753
     45 H5         -1.5604   -0.5544   -3.6257 H         1 <0>         0.1394
     46 H6         -1.8119    3.5778   -0.9034 H         1 <0>         0.1419
     47 H7         -4.2095    1.3205   -0.0051 H         1 <0>         0.0937
     48 H8         -2.7633    0.7467    0.8595 H         1 <0>         0.0981
     49 H9         -3.5025    4.8612    0.6605 H         1 <0>         0.1039
     50 H10        -4.3557    3.7770   -0.4642 H         1 <0>         0.1004
     51 H11        -6.8320    3.6853    2.9112 H         1 <0>         0.2167
     52 H12        -1.0645    1.1553    1.4018 H         1 <0>         0.1301
     53 H13         0.7552    1.5425    2.9843 H         1 <0>         0.1344
     54 H14        -2.6996    5.0078    2.3029 H         1 <0>         0.1379
     55 H15         2.0620    1.9561    4.1966 H         1 <0>         0.3937
     56 H16         3.4721    4.0753    5.6277 H         1 <0>         0.0965
     57 H17         5.1862    2.2765    5.9992 H         1 <0>         0.1370
     58 H18         4.1086    1.1264    5.1720 H         1 <0>         0.0891
     59 H19         8.1376    2.7315    4.2403 H         1 <0>         0.2135
     60 H20         2.1163    2.2645   -6.1687 H         1 <0>         0.0984
     61 H21         0.6146    1.8299   -7.0198 H         1 <0>         0.1031
     62 H22         1.0664    3.5410   -6.8292 H         1 <0>         0.0858
     63 H23         0.7766    4.5574   -4.7257 H         1 <0>         0.4179
@<TRIPOS>BOND
     1    1   42 1
     2    1   43 1
     3    1   44 1
     4    1    2 1
     5    2    7 ar
     6    2    3 ar
     7    3   45 1
     8    3    4 ar
     9    4    5 ar
    10    4   39 1
    11    5   36 1
    12    5    6 ar
    13    6   46 1
    14    6    7 ar
    15    7    8 1
    16    8    9 1
    17    8   47 1
    18    8   48 1
    19    9   10 1
    20    9   13 1
    21   10   11 1
    22   10   49 1
    23   10   50 1
    24   11   12 3
    25   12   51 1
    26   13   18 ar
    27   13   14 ar
    28   14   15 ar
    29   14   52 1
    30   15   16 ar
    31   15   53 1
    32   16   17 ar
    33   16   20 1
    34   17   18 ar
    35   17   19 1
    36   18   54 1
    37   20   21 2
    38   20   22 am
    39   22   23 1
    40   22   55 1
    41   23   24 1
    42   23   33 1
    43   23   56 1
    44   24   25 1
    45   24   57 1
    46   24   58 1
    47   25   26 2
    48   25   27 1
    49   27   32 2
    50   27   28 1
    51   28   59 1
    52   28   29 2
    53   29   31 1
    54   30   31 1
    55   31   32 1
    56   33   34 2
    57   33   35 1
    58   36   41 2
    59   36   37 am
    60   37   38 1
    61   37   63 1
    62   38   39 2
    63   38   40 1
    64   40   60 1
    65   40   61 1
    66   40   62 1
@<TRIPOS>MOLECULE
CHEMBL126914__2
   63    66     0     0     0
SMALL
USER_CHARGES

@<TRIPOS>ATOM
      1 C1         -3.0009   -0.8810   -1.3772 C.3       1 <0>        -0.1242
      2 C2         -2.3070    0.3696   -1.8521 C.ar      1 <0>        -0.0301
      3 C3         -1.6097    0.3513   -3.0394 C.ar      1 <0>        -0.1109
      4 C4         -0.9665    1.5088   -3.4814 C.ar      1 <0>         0.1574
      5 C5         -1.0419    2.6838   -2.7006 C.ar      1 <0>        -0.2024
      6 C6         -1.7525    2.6812   -1.5025 C.ar      1 <0>        -0.0179
      7 C7         -2.3834    1.5276   -1.0898 C.ar      1 <0>        -0.1301
      8 C8         -3.1585    1.5215    0.2025 C.3       1 <0>         0.1666
      9 N1         -3.0305    2.8269    0.8549 N.pl3     1 <0>        -0.6158
     10 C9         -3.9908    3.8923    0.5564 C.3       1 <0>         0.2278
     11 C10        -5.1223    3.8098    1.4943 C.1       1 <0>        -0.2135
     12 C11        -6.0248    3.7441    2.2423 C.1       1 <0>        -0.1788
     13 C12        -1.9976    3.0548    1.7575 C.ar      1 <0>         0.2559
     14 C13        -1.0184    2.0833    1.9523 C.ar      1 <0>        -0.2057
     15 C14        -0.0009    2.2994    2.8367 C.ar      1 <0>        -0.0037
     16 C15         0.0632    3.4995    3.5519 C.ar      1 <0>        -0.2082
     17 C16        -0.9193    4.4788    3.3584 C.ar      1 <0>         0.2048
     18 C17        -1.9417    4.2544    2.4590 C.ar      1 <0>        -0.2420
     19 F1         -0.8636    5.6405    4.0459 F         1 <0>        -0.1135
     20 C18         1.1611    3.7328    4.5069 C.2       1 <0>         0.5659
     21 O1          1.2151    4.7769    5.1280 O.2       1 <0>        -0.5393
     22 N2          2.1052    2.7889    4.6920 N.am      1 <0>        -0.6967
     23 C19         3.1966    3.0208    5.6414 C.3       1 <0>         0.0969
     24 C20         4.4065    2.1724    5.2447 C.3       1 <0>        -0.4365
     25 S1          5.0389    2.7341    3.6400 S.o       1 <0>         1.3678
     26 O2          4.1070    2.4002    2.6205 O.2       1 <0>        -0.8221
     27 C21         6.4107    1.6734    3.3275 C.2       1 <0>        -0.3722
     28 C22         7.6969    1.8840    3.6926 C.2       1 <0>         0.0331
     29 N3          8.3957    0.8152    3.2449 N.pl3     1 <0>        -0.3953
     30 N4          7.5777    0.0186    2.6508 N.2       1 <0>        -0.0891
     31 N5          6.3849    0.4988    2.6879 N.2       1 <0>        -0.2086
     32 C23         2.7467    2.6371    7.0275 C.2       1 <0>         0.4993
     33 O3          1.6937    2.0428    7.1840 O.co2     1 <0>        -0.6794
     34 O4          3.4357    2.9210    7.9925 O.co2     1 <0>        -0.6939
     35 C24        -0.3530    3.8856   -3.1940 C.2       1 <0>         0.5496
     36 N6          0.3105    3.7850   -4.3693 N.am      1 <0>        -0.6545
     37 C25         0.3296    2.6121   -5.0548 C.2       1 <0>         0.3941
     38 N7         -0.2684    1.5353   -4.6443 N.2       1 <0>        -0.5221
     39 C26         1.0839    2.5582   -6.3583 C.3       1 <0>        -0.1108
     40 O5         -0.3789    4.9304   -2.5699 O.2       1 <0>        -0.5047
     41 H1         -4.0506   -0.8471   -1.6690 H         1 <0>         0.0789
     42 H2         -2.5266   -1.7530   -1.8274 H         1 <0>         0.0737
     43 H3         -2.9275   -0.9474   -0.2917 H         1 <0>         0.0754
     44 H4         -1.5604   -0.5544   -3.6257 H         1 <0>         0.1396
     45 H5         -1.8119    3.5778   -0.9034 H         1 <0>         0.1418
     46 H6         -4.2095    1.3205   -0.0051 H         1 <0>         0.0936
     47 H7         -2.7633    0.7467    0.8595 H         1 <0>         0.0983
     48 H8         -3.5025    4.8612    0.6605 H         1 <0>         0.1038
     49 H9         -4.3557    3.7770   -0.4642 H         1 <0>         0.1004
     50 H10        -6.8320    3.6853    2.9112 H         1 <0>         0.2166
     51 H11        -1.0645    1.1553    1.4018 H         1 <0>         0.1305
     52 H12         0.7552    1.5425    2.9843 H         1 <0>         0.1351
     53 H13        -2.6996    5.0078    2.3029 H         1 <0>         0.1377
     54 H14         2.0620    1.9561    4.1966 H         1 <0>         0.3945
     55 H15         3.4721    4.0753    5.6277 H         1 <0>         0.0952
     56 H16         5.1862    2.2765    5.9992 H         1 <0>         0.1339
     57 H17         4.1086    1.1264    5.1720 H         1 <0>         0.0903
     58 H18         8.0871    2.7343    4.2322 H         1 <0>         0.2100
     59 H19         2.1163    2.2645   -6.1687 H         1 <0>         0.0985
     60 H20         0.6146    1.8299   -7.0198 H         1 <0>         0.1031
     61 H21         1.0664    3.5410   -6.8292 H         1 <0>         0.0855
     62 H22         0.7766    4.5574   -4.7257 H         1 <0>         0.4177
     63 H23         9.3492    0.6739    3.3528 H         1 <0>         0.4486
@<TRIPOS>BOND
     1    1   41 1
     2    1   42 1
     3    1   43 1
     4    1    2 1
     5    2    7 ar
     6    2    3 ar
     7    3   44 1
     8    3    4 ar
     9    4    5 ar
    10    4   38 1
    11    5   35 1
    12    5    6 ar
    13    6   45 1
    14    6    7 ar
    15    7    8 1
    16    8    9 1
    17    8   46 1
    18    8   47 1
    19    9   10 1
    20    9   13 1
    21   10   11 1
    22   10   48 1
    23   10   49 1
    24   11   12 3
    25   12   50 1
    26   13   18 ar
    27   13   14 ar
    28   14   15 ar
    29   14   51 1
    30   15   16 ar
    31   15   52 1
    32   16   17 ar
    33   16   20 1
    34   17   18 ar
    35   17   19 1
    36   18   53 1
    37   20   21 2
    38   20   22 am
    39   22   23 1
    40   22   54 1
    41   23   24 1
    42   23   32 1
    43   23   55 1
    44   24   25 1
    45   24   56 1
    46   24   57 1
    47   25   26 2
    48   25   27 1
    49   27   31 1
    50   27   28 2
    51   28   58 1
    52   28   29 1
    53   29   30 1
    54   29   63 1
    55   30   31 2
    56   32   33 2
    57   32   34 1
    58   35   40 2
    59   35   36 am
    60   36   37 1
    61   36   62 1
    62   37   38 2
    63   37   39 1
    64   39   59 1
    65   39   60 1
    66   39   61 1
@<TRIPOS>MOLECULE
CHEMBL126914__3
   62    65     0     0     0
SMALL
USER_CHARGES

@<TRIPOS>ATOM
      1 C1         -3.0009   -0.8810   -1.3772 C.3       1 <0>        -0.1236
      2 C2         -2.3070    0.3696   -1.8521 C.ar      1 <0>        -0.0305
      3 C3         -1.6097    0.3513   -3.0394 C.ar      1 <0>        -0.1109
      4 C4         -0.9665    1.5088   -3.4814 C.ar      1 <0>         0.1573
      5 C5         -1.0419    2.6838   -2.7006 C.ar      1 <0>        -0.2016
      6 C6         -1.7525    2.6812   -1.5025 C.ar      1 <0>        -0.0174
      7 C7         -2.3834    1.5276   -1.0898 C.ar      1 <0>        -0.1297
      8 C8         -3.1585    1.5215    0.2025 C.3       1 <0>         0.1675
      9 N1         -3.0305    2.8269    0.8549 N.pl3     1 <0>        -0.6173
     10 C9         -3.9908    3.8923    0.5564 C.3       1 <0>         0.2278
     11 C10        -5.1223    3.8098    1.4943 C.1       1 <0>        -0.2088
     12 C11        -6.0248    3.7441    2.2423 C.1       1 <0>        -0.1847
     13 C12        -1.9976    3.0548    1.7575 C.ar      1 <0>         0.2494
     14 C13        -1.0184    2.0833    1.9523 C.ar      1 <0>        -0.2036
     15 C14        -0.0009    2.2994    2.8367 C.ar      1 <0>        -0.0105
     16 C15         0.0632    3.4995    3.5519 C.ar      1 <0>        -0.2002
     17 C16        -0.9193    4.4788    3.3584 C.ar      1 <0>         0.2022
     18 C17        -1.9417    4.2544    2.4590 C.ar      1 <0>        -0.2407
     19 F1         -0.8636    5.6405    4.0459 F         1 <0>        -0.1141
     20 C18         1.1611    3.7328    4.5069 C.2       1 <0>         0.5578
     21 O1          1.2151    4.7769    5.1280 O.2       1 <0>        -0.5388
     22 N2          2.1052    2.7889    4.6920 N.am      1 <0>        -0.6901
     23 C19         3.1966    3.0208    5.6414 C.3       1 <0>         0.1040
     24 C20         4.4065    2.1724    5.2447 C.3       1 <0>        -0.4398
     25 S1          5.0389    2.7341    3.6400 S.o       1 <0>         1.3535
     26 O2          5.6250    4.0203    3.7857 O.2       1 <0>        -0.8783
     27 C21         6.4107    1.6734    3.3275 C.2       1 <0>        -0.4434
     28 C22         7.7399    1.8844    3.7013 C.2       1 <0>        -0.0659
     29 N3          8.4072    0.8414    3.2620 N.2       1 <0>        -0.3758
     30 N4          7.5879    0.0470    2.6692 N.2       1 <0>        -0.2088
     31 N5          6.3921    0.5191    2.7003 N.2       1 <0>        -0.2985
     32 C23         2.7467    2.6371    7.0275 C.2       1 <0>         0.5015
     33 O3          1.6937    2.0428    7.1840 O.co2     1 <0>        -0.6895
     34 O4          3.4357    2.9210    7.9925 O.co2     1 <0>        -0.6987
     35 C24        -0.3530    3.8856   -3.1940 C.2       1 <0>         0.5491
     36 N6          0.3105    3.7850   -4.3693 N.am      1 <0>        -0.6546
     37 C25         0.3296    2.6121   -5.0548 C.2       1 <0>         0.3944
     38 N7         -0.2684    1.5353   -4.6443 N.2       1 <0>        -0.5227
     39 C26         1.0839    2.5582   -6.3583 C.3       1 <0>        -0.1107
     40 O5         -0.3789    4.9304   -2.5699 O.2       1 <0>        -0.5036
     41 H1         -4.0506   -0.8471   -1.6690 H         1 <0>         0.0766
     42 H2         -2.5266   -1.7530   -1.8274 H         1 <0>         0.0734
     43 H3         -2.9275   -0.9474   -0.2917 H         1 <0>         0.0763
     44 H4         -1.5604   -0.5544   -3.6257 H         1 <0>         0.1388
     45 H5         -1.8119    3.5778   -0.9034 H         1 <0>         0.1424
     46 H6         -4.2095    1.3205   -0.0051 H         1 <0>         0.0912
     47 H7         -2.7633    0.7467    0.8595 H         1 <0>         0.0995
     48 H8         -3.5025    4.8612    0.6605 H         1 <0>         0.1036
     49 H9         -4.3557    3.7770   -0.4642 H         1 <0>         0.0989
     50 H10        -6.8320    3.6853    2.9112 H         1 <0>         0.2154
     51 H11        -1.0645    1.1553    1.4018 H         1 <0>         0.1321
     52 H12         0.7552    1.5425    2.9843 H         1 <0>         0.1424
     53 H13        -2.6996    5.0078    2.3029 H         1 <0>         0.1351
     54 H14         2.0620    1.9561    4.1966 H         1 <0>         0.3924
     55 H15         3.4721    4.0753    5.6277 H         1 <0>         0.0866
     56 H16         5.1862    2.2765    5.9992 H         1 <0>         0.0974
     57 H17         4.1086    1.1264    5.1720 H         1 <0>         0.1080
     58 H18         8.1376    2.7315    4.2403 H         1 <0>         0.1344
     59 H19         2.1163    2.2645   -6.1687 H         1 <0>         0.0997
     60 H20         0.6146    1.8299   -7.0198 H         1 <0>         0.1019
     61 H21         1.0664    3.5410   -6.8292 H         1 <0>         0.0843
     62 H22         0.7766    4.5574   -4.7257 H         1 <0>         0.4176
@<TRIPOS>BOND
     1    1   41 1
     2    1   42 1
     3    1   43 1
     4    1    2 1
     5    2    7 ar
     6    2    3 ar
     7    3   44 1
     8    3    4 ar
     9    4    5 ar
    10    4   38 1
    11    5   35 1
    12    5    6 ar
    13    6   45 1
    14    6    7 ar
    15    7    8 1
    16    8    9 1
    17    8   46 1
    18    8   47 1
    19    9   10 1
    20    9   13 1
    21   10   11 1
    22   10   48 1
    23   10   49 1
    24   11   12 3
    25   12   50 1
    26   13   18 ar
    27   13   14 ar
    28   14   15 ar
    29   14   51 1
    30   15   16 ar
    31   15   52 1
    32   16   17 ar
    33   16   20 1
    34   17   18 ar
    35   17   19 1
    36   18   53 1
    37   20   21 2
    38   20   22 am
    39   22   23 1
    40   22   54 1
    41   23   24 1
    42   23   32 1
    43   23   55 1
    44   24   25 1
    45   24   56 1
    46   24   57 1
    47   25   26 2
    48   25   27 1
    49   27   31 2
    50   27   28 1
    51   28   58 1
    52   28   29 2
    53   29   30 1
    54   30   31 1
    55   32   33 2
    56   32   34 1
    57   35   40 2
    58   35   36 am
    59   36   37 1
    60   36   62 1
    61   37   38 2
    62   37   39 1
    63   39   59 1
    64   39   60 1
    65   39   61 1
@<TRIPOS>MOLECULE
CHEMBL126914__4
   63    66     0     0     0
SMALL
USER_CHARGES

@<TRIPOS>ATOM
      1 C1         -3.0009   -0.8810   -1.3772 C.3       1 <0>        -0.1247
      2 C2         -2.3070    0.3696   -1.8521 C.ar      1 <0>        -0.0295
      3 C3         -1.6097    0.3513   -3.0394 C.ar      1 <0>        -0.1111
      4 C4         -0.9665    1.5088   -3.4814 C.ar      1 <0>         0.1579
      5 C5         -1.0419    2.6838   -2.7006 C.ar      1 <0>        -0.2026
      6 C6         -1.7525    2.6812   -1.5025 C.ar      1 <0>        -0.0183
      7 C7         -2.3834    1.5276   -1.0898 C.ar      1 <0>        -0.1301
      8 C8         -3.1585    1.5215    0.2025 C.3       1 <0>         0.1662
      9 N1         -3.0305    2.8269    0.8549 N.pl3     1 <0>        -0.6153
     10 C9         -3.9908    3.8923    0.5564 C.3       1 <0>         0.2277
     11 C10        -5.1223    3.8098    1.4943 C.1       1 <0>        -0.2151
     12 C11        -6.0248    3.7441    2.2423 C.1       1 <0>        -0.1769
     13 C12        -1.9976    3.0548    1.7575 C.ar      1 <0>         0.2564
     14 C13        -1.0184    2.0833    1.9523 C.ar      1 <0>        -0.2059
     15 C14        -0.0009    2.2994    2.8367 C.ar      1 <0>        -0.0110
     16 C15         0.0632    3.4995    3.5519 C.ar      1 <0>        -0.2097
     17 C16        -0.9193    4.4788    3.3584 C.ar      1 <0>         0.2066
     18 C17        -1.9417    4.2544    2.4590 C.ar      1 <0>        -0.2407
     19 F1         -0.8636    5.6405    4.0459 F         1 <0>        -0.1126
     20 C18         1.1611    3.7328    4.5069 C.2       1 <0>         0.5617
     21 O1          1.2151    4.7769    5.1280 O.2       1 <0>        -0.5299
     22 N2          2.1052    2.7889    4.6920 N.am      1 <0>        -0.7014
     23 C19         3.1966    3.0208    5.6414 C.3       1 <0>         0.0992
     24 C20         4.4065    2.1724    5.2447 C.3       1 <0>        -0.4334
     25 S1          5.0389    2.7341    3.6400 S.o       1 <0>         1.3740
     26 O2          5.6250    4.0203    3.7857 O.2       1 <0>        -0.8305
     27 C21         6.4107    1.6734    3.3275 C.2       1 <0>        -0.3446
     28 C22         7.7399    1.8844    3.7013 C.2       1 <0>         0.0332
     29 N3          8.4072    0.8414    3.2620 N.2       1 <0>        -0.2905
     30 H1          7.8372   -0.7956    2.2583 H         1 <0>         0.4680
     31 N4          7.5879    0.0470    2.6692 N.pl3     1 <0>        -0.2421
     32 N5          6.3921    0.5191    2.7003 N.2       1 <0>        -0.2079
     33 C23         2.7467    2.6371    7.0275 C.2       1 <0>         0.4995
     34 O3          1.6937    2.0428    7.1840 O.co2     1 <0>        -0.6787
     35 O4          3.4357    2.9210    7.9925 O.co2     1 <0>        -0.6928
     36 C24        -0.3530    3.8856   -3.1940 C.2       1 <0>         0.5489
     37 N6          0.3105    3.7850   -4.3693 N.am      1 <0>        -0.6547
     38 C25         0.3296    2.6121   -5.0548 C.2       1 <0>         0.3954
     39 N7         -0.2684    1.5353   -4.6443 N.2       1 <0>        -0.5229
     40 C26         1.0839    2.5582   -6.3583 C.3       1 <0>        -0.1116
     41 O5         -0.3789    4.9304   -2.5699 O.2       1 <0>        -0.5040
     42 H2         -4.0506   -0.8471   -1.6690 H         1 <0>         0.0786
     43 H3         -2.5266   -1.7530   -1.8274 H         1 <0>         0.0737
     44 H4         -2.9275   -0.9474   -0.2917 H         1 <0>         0.0759
     45 H5         -1.5604   -0.5544   -3.6257 H         1 <0>         0.1394
     46 H6         -1.8119    3.5778   -0.9034 H         1 <0>         0.1420
     47 H7         -4.2095    1.3205   -0.0051 H         1 <0>         0.0934
     48 H8         -2.7633    0.7467    0.8595 H         1 <0>         0.0993
     49 H9         -3.5025    4.8612    0.6605 H         1 <0>         0.1041
     50 H10        -4.3557    3.7770   -0.4642 H         1 <0>         0.1005
     51 H11        -6.8320    3.6853    2.9112 H         1 <0>         0.2166
     52 H12        -1.0645    1.1553    1.4018 H         1 <0>         0.1326
     53 H13         0.7552    1.5425    2.9843 H         1 <0>         0.1388
     54 H14        -2.6996    5.0078    2.3029 H         1 <0>         0.1377
     55 H15         2.0620    1.9561    4.1966 H         1 <0>         0.3917
     56 H16         3.4721    4.0753    5.6277 H         1 <0>         0.0923
     57 H17         5.1862    2.2765    5.9992 H         1 <0>         0.1101
     58 H18         4.1086    1.1264    5.1720 H         1 <0>         0.1196
     59 H19         8.1376    2.7315    4.2403 H         1 <0>         0.2020
     60 H20         2.1163    2.2645   -6.1687 H         1 <0>         0.0988
     61 H21         0.6146    1.8299   -7.0198 H         1 <0>         0.1031
     62 H22         1.0664    3.5410   -6.8292 H         1 <0>         0.0856
     63 H23         0.7766    4.5574   -4.7257 H         1 <0>         0.4181
@<TRIPOS>BOND
     1    1   42 1
     2    1   43 1
     3    1   44 1
     4    1    2 1
     5    2    7 ar
     6    2    3 ar
     7    3   45 1
     8    3    4 ar
     9    4    5 ar
    10    4   39 1
    11    5   36 1
    12    5    6 ar
    13    6   46 1
    14    6    7 ar
    15    7    8 1
    16    8    9 1
    17    8   47 1
    18    8   48 1
    19    9   10 1
    20    9   13 1
    21   10   11 1
    22   10   49 1
    23   10   50 1
    24   11   12 3
    25   12   51 1
    26   13   18 ar
    27   13   14 ar
    28   14   15 ar
    29   14   52 1
    30   15   16 ar
    31   15   53 1
    32   16   17 ar
    33   16   20 1
    34   17   18 ar
    35   17   19 1
    36   18   54 1
    37   20   21 2
    38   20   22 am
    39   22   23 1
    40   22   55 1
    41   23   24 1
    42   23   33 1
    43   23   56 1
    44   24   25 1
    45   24   57 1
    46   24   58 1
    47   25   26 2
    48   25   27 1
    49   27   32 2
    50   27   28 1
    51   28   59 1
    52   28   29 2
    53   29   31 1
    54   30   31 1
    55   31   32 1
    56   33   34 2
    57   33   35 1
    58   36   41 2
    59   36   37 am
    60   37   38 1
    61   37   63 1
    62   38   39 2
    63   38   40 1
    64   40   60 1
    65   40   61 1
    66   40   62 1
@<TRIPOS>MOLECULE
CHEMBL126914__5
   63    66     0     0     0
SMALL
USER_CHARGES

@<TRIPOS>ATOM
      1 C1         -3.0009   -0.8810   -1.3772 C.3       1 <0>        -0.1247
      2 C2         -2.3070    0.3696   -1.8521 C.ar      1 <0>        -0.0294
      3 C3         -1.6097    0.3513   -3.0394 C.ar      1 <0>        -0.1108
      4 C4         -0.9665    1.5088   -3.4814 C.ar      1 <0>         0.1580
      5 C5         -1.0419    2.6838   -2.7006 C.ar      1 <0>        -0.2026
      6 C6         -1.7525    2.6812   -1.5025 C.ar      1 <0>        -0.0184
      7 C7         -2.3834    1.5276   -1.0898 C.ar      1 <0>        -0.1301
      8 C8         -3.1585    1.5215    0.2025 C.3       1 <0>         0.1662
      9 N1         -3.0305    2.8269    0.8549 N.pl3     1 <0>        -0.6153
     10 C9         -3.9908    3.8923    0.5564 C.3       1 <0>         0.2277
     11 C10        -5.1223    3.8098    1.4943 C.1       1 <0>        -0.2147
     12 C11        -6.0248    3.7441    2.2423 C.1       1 <0>        -0.1775
     13 C12        -1.9976    3.0548    1.7575 C.ar      1 <0>         0.2564
     14 C13        -1.0184    2.0833    1.9523 C.ar      1 <0>        -0.2055
     15 C14        -0.0009    2.2994    2.8367 C.ar      1 <0>        -0.0106
     16 C15         0.0632    3.4995    3.5519 C.ar      1 <0>        -0.2099
     17 C16        -0.9193    4.4788    3.3584 C.ar      1 <0>         0.2063
     18 C17        -1.9417    4.2544    2.4590 C.ar      1 <0>        -0.2410
     19 F1         -0.8636    5.6405    4.0459 F         1 <0>        -0.1130
     20 C18         1.1611    3.7328    4.5069 C.2       1 <0>         0.5620
     21 O1          1.2151    4.7769    5.1280 O.2       1 <0>        -0.5311
     22 N2          2.1052    2.7889    4.6920 N.am      1 <0>        -0.7011
     23 C19         3.1966    3.0208    5.6414 C.3       1 <0>         0.0997
     24 C20         4.4065    2.1724    5.2447 C.3       1 <0>        -0.4335
     25 S1          5.0389    2.7341    3.6400 S.o       1 <0>         1.3725
     26 O2          5.6250    4.0203    3.7857 O.2       1 <0>        -0.8396
     27 C21         6.4107    1.6734    3.3275 C.2       1 <0>        -0.3712
     28 C22         7.6969    1.8840    3.6926 C.2       1 <0>         0.0270
     29 N3          8.3957    0.8152    3.2449 N.pl3     1 <0>        -0.3935
     30 N4          7.5777    0.0186    2.6508 N.2       1 <0>        -0.0817
     31 N5          6.3849    0.4988    2.6879 N.2       1 <0>        -0.1975
     32 C23         2.7467    2.6371    7.0275 C.2       1 <0>         0.4995
     33 O3          1.6937    2.0428    7.1840 O.co2     1 <0>        -0.6779
     34 O4          3.4357    2.9210    7.9925 O.co2     1 <0>        -0.6945
     35 C24        -0.3530    3.8856   -3.1940 C.2       1 <0>         0.5491
     36 N6          0.3105    3.7850   -4.3693 N.am      1 <0>        -0.6547
     37 C25         0.3296    2.6121   -5.0548 C.2       1 <0>         0.3952
     38 N7         -0.2684    1.5353   -4.6443 N.2       1 <0>        -0.5225
     39 C26         1.0839    2.5582   -6.3583 C.3       1 <0>        -0.1115
     40 O5         -0.3789    4.9304   -2.5699 O.2       1 <0>        -0.5045
     41 H1         -4.0506   -0.8471   -1.6690 H         1 <0>         0.0784
     42 H2         -2.5266   -1.7530   -1.8274 H         1 <0>         0.0739
     43 H3         -2.9275   -0.9474   -0.2917 H         1 <0>         0.0760
     44 H4         -1.5604   -0.5544   -3.6257 H         1 <0>         0.1395
     45 H5         -1.8119    3.5778   -0.9034 H         1 <0>         0.1419
     46 H6         -4.2095    1.3205   -0.0051 H         1 <0>         0.0933
     47 H7         -2.7633    0.7467    0.8595 H         1 <0>         0.0995
     48 H8         -3.5025    4.8612    0.6605 H         1 <0>         0.1040
     49 H9         -4.3557    3.7770   -0.4642 H         1 <0>         0.1005
     50 H10        -6.8320    3.6853    2.9112 H         1 <0>         0.2165
     51 H11        -1.0645    1.1553    1.4018 H         1 <0>         0.1330
     52 H12         0.7552    1.5425    2.9843 H         1 <0>         0.1396
     53 H13        -2.6996    5.0078    2.3029 H         1 <0>         0.1375
     54 H14         2.0620    1.9561    4.1966 H         1 <0>         0.3925
     55 H15         3.4721    4.0753    5.6277 H         1 <0>         0.0913
     56 H16         5.1862    2.2765    5.9992 H         1 <0>         0.1072
     57 H17         4.1086    1.1264    5.1720 H         1 <0>         0.1210
     58 H18         8.0871    2.7343    4.2322 H         1 <0>         0.1987
     59 H19         2.1163    2.2645   -6.1687 H         1 <0>         0.0989
     60 H20         0.6146    1.8299   -7.0198 H         1 <0>         0.1031
     61 H21         1.0664    3.5410   -6.8292 H         1 <0>         0.0854
     62 H22         0.7766    4.5574   -4.7257 H         1 <0>         0.4179
     63 H23         9.3492    0.6739    3.3528 H         1 <0>         0.4490
@<TRIPOS>BOND
     1    1   41 1
     2    1   42 1
     3    1   43 1
     4    1    2 1
     5    2    7 ar
     6    2    3 ar
     7    3   44 1
     8    3    4 ar
     9    4    5 ar
    10    4   38 1
    11    5   35 1
    12    5    6 ar
    13    6   45 1
    14    6    7 ar
    15    7    8 1
    16    8    9 1
    17    8   46 1
    18    8   47 1
    19    9   10 1
    20    9   13 1
    21   10   11 1
    22   10   48 1
    23   10   49 1
    24   11   12 3
    25   12   50 1
    26   13   18 ar
    27   13   14 ar
    28   14   15 ar
    29   14   51 1
    30   15   16 ar
    31   15   52 1
    32   16   17 ar
    33   16   20 1
    34   17   18 ar
    35   17   19 1
    36   18   53 1
    37   20   21 2
    38   20   22 am
    39   22   23 1
    40   22   54 1
    41   23   24 1
    42   23   32 1
    43   23   55 1
    44   24   25 1
    45   24   56 1
    46   24   57 1
    47   25   26 2
    48   25   27 1
    49   27   31 1
    50   27   28 2
    51   28   58 1
    52   28   29 1
    53   29   30 1
    54   29   63 1
    55   30   31 2
    56   32   33 2
    57   32   34 1
    58   35   40 2
    59   35   36 am
    60   36   37 1
    61   36   62 1
    62   37   38 2
    63   37   39 1
    64   39   59 1
    65   39   60 1
    66   39   61 1
@<TRIPOS>MOLECULE
CHEMBL126914__6
   62    65     0     0     0
SMALL
USER_CHARGES

@<TRIPOS>ATOM
      1 C1         -3.0009   -0.8810   -1.3772 C.3       1 <0>        -0.1237
      2 C2         -2.3070    0.3696   -1.8521 C.ar      1 <0>        -0.0304
      3 C3         -1.6097    0.3513   -3.0394 C.ar      1 <0>        -0.1114
      4 C4         -0.9665    1.5088   -3.4814 C.ar      1 <0>         0.1565
      5 C5         -1.0419    2.6838   -2.7006 C.ar      1 <0>        -0.2014
      6 C6         -1.7525    2.6812   -1.5025 C.ar      1 <0>        -0.0174
      7 C7         -2.3834    1.5276   -1.0898 C.ar      1 <0>        -0.1296
      8 C8         -3.1585    1.5215    0.2025 C.3       1 <0>         0.1673
      9 N1         -3.0305    2.8269    0.8549 N.pl3     1 <0>        -0.6171
     10 C9         -3.9908    3.8923    0.5564 C.3       1 <0>         0.2276
     11 C10        -5.1223    3.8098    1.4943 C.1       1 <0>        -0.2092
     12 C11        -6.0248    3.7441    2.2423 C.1       1 <0>        -0.1837
     13 C12        -1.9976    3.0548    1.7575 C.ar      1 <0>         0.2501
     14 C13        -1.0184    2.0833    1.9523 C.ar      1 <0>        -0.2039
     15 C14        -0.0009    2.2994    2.8367 C.ar      1 <0>        -0.0110
     16 C15         0.0632    3.4995    3.5519 C.ar      1 <0>        -0.2020
     17 C16        -0.9193    4.4788    3.3584 C.ar      1 <0>         0.2029
     18 C17        -1.9417    4.2544    2.4590 C.ar      1 <0>        -0.2405
     19 F1         -0.8636    5.6405    4.0459 F         1 <0>        -0.1136
     20 C18         1.1611    3.7328    4.5069 C.2       1 <0>         0.5529
     21 O1          1.2151    4.7769    5.1280 O.2       1 <0>        -0.5348
     22 N2          2.1052    2.7889    4.6920 N.am      1 <0>        -0.6922
     23 C19         3.1966    3.0208    5.6414 C.3       1 <0>         0.1042
     24 C20         3.7369    1.6774    6.1354 C.3       1 <0>        -0.4444
     25 S1          2.4073    0.7557    6.9559 S.o       1 <0>         1.3494
     26 O2          2.0709    1.3973    8.1784 O.2       1 <0>        -0.8682
     27 C21         3.1784   -0.7460    7.4608 C.2       1 <0>        -0.4420
     28 C22         3.2759   -1.9302    6.7266 C.2       1 <0>        -0.0670
     29 N3          3.9276   -2.7759    7.4922 N.2       1 <0>        -0.3756
     30 N4          4.2160   -2.1911    8.6007 N.2       1 <0>        -0.2140
     31 N5          3.7844   -0.9797    8.6028 N.2       1 <0>        -0.3024
     32 C23         4.3011    3.7865    4.9597 C.2       1 <0>         0.5023
     33 O3          5.0091    4.5402    5.6057 O.co2     1 <0>        -0.6963
     34 O4          4.4868    3.6523    3.7622 O.co2     1 <0>        -0.6930
     35 C24        -0.3530    3.8856   -3.1940 C.2       1 <0>         0.5484
     36 N6          0.3105    3.7850   -4.3693 N.am      1 <0>        -0.6547
     37 C25         0.3296    2.6121   -5.0548 C.2       1 <0>         0.3938
     38 N7         -0.2684    1.5353   -4.6443 N.2       1 <0>        -0.5230
     39 C26         1.0839    2.5582   -6.3583 C.3       1 <0>        -0.1103
     40 O5         -0.3789    4.9304   -2.5699 O.2       1 <0>        -0.5022
     41 H1         -4.0506   -0.8471   -1.6690 H         1 <0>         0.0771
     42 H2         -2.5266   -1.7530   -1.8274 H         1 <0>         0.0734
     43 H3         -2.9275   -0.9474   -0.2917 H         1 <0>         0.0769
     44 H4         -1.5604   -0.5544   -3.6257 H         1 <0>         0.1388
     45 H5         -1.8119    3.5778   -0.9034 H         1 <0>         0.1423
     46 H6         -4.2095    1.3205   -0.0051 H         1 <0>         0.0918
     47 H7         -2.7633    0.7467    0.8595 H         1 <0>         0.1003
     48 H8         -3.5025    4.8612    0.6605 H         1 <0>         0.1035
     49 H9         -4.3557    3.7770   -0.4642 H         1 <0>         0.0989
     50 H10        -6.8320    3.6853    2.9112 H         1 <0>         0.2156
     51 H11        -1.0645    1.1553    1.4018 H         1 <0>         0.1325
     52 H12         0.7552    1.5425    2.9843 H         1 <0>         0.1426
     53 H13        -2.6996    5.0078    2.3029 H         1 <0>         0.1356
     54 H14         2.0620    1.9561    4.1966 H         1 <0>         0.3923
     55 H15         2.8247    3.5967    6.4889 H         1 <0>         0.0863
     56 H16         4.1088    1.1015    5.2879 H         1 <0>         0.1091
     57 H17         4.5490    1.8499    6.8417 H         1 <0>         0.0949
     58 H18         2.8933   -2.1134    5.7333 H         1 <0>         0.1450
     59 H19         2.1163    2.2645   -6.1687 H         1 <0>         0.0989
     60 H20         0.6146    1.8299   -7.0198 H         1 <0>         0.1020
     61 H21         1.0664    3.5410   -6.8292 H         1 <0>         0.0845
     62 H22         0.7766    4.5574   -4.7257 H         1 <0>         0.4175
@<TRIPOS>BOND
     1    1   41 1
     2    1   42 1
     3    1   43 1
     4    1    2 1
     5    2    7 ar
     6    2    3 ar
     7    3   44 1
     8    3    4 ar
     9    4    5 ar
    10    4   38 1
    11    5   35 1
    12    5    6 ar
    13    6   45 1
    14    6    7 ar
    15    7    8 1
    16    8    9 1
    17    8   46 1
    18    8   47 1
    19    9   10 1
    20    9   13 1
    21   10   11 1
    22   10   48 1
    23   10   49 1
    24   11   12 3
    25   12   50 1
    26   13   18 ar
    27   13   14 ar
    28   14   15 ar
    29   14   51 1
    30   15   16 ar
    31   15   52 1
    32   16   17 ar
    33   16   20 1
    34   17   18 ar
    35   17   19 1
    36   18   53 1
    37   20   21 2
    38   20   22 am
    39   22   23 1
    40   22   54 1
    41   23   24 1
    42   23   32 1
    43   23   55 1
    44   24   25 1
    45   24   56 1
    46   24   57 1
    47   25   26 2
    48   25   27 1
    49   27   31 2
    50   27   28 1
    51   28   58 1
    52   28   29 2
    53   29   30 1
    54   30   31 1
    55   32   33 2
    56   32   34 1
    57   35   40 2
    58   35   36 am
    59   36   37 1
    60   36   62 1
    61   37   38 2
    62   37   39 1
    63   39   59 1
    64   39   60 1
    65   39   61 1
@<TRIPOS>MOLECULE
CHEMBL126914__7
   63    66     0     0     0
SMALL
USER_CHARGES

@<TRIPOS>ATOM
      1 C1         -3.0009   -0.8810   -1.3772 C.3       1 <0>        -0.1234
      2 C2         -2.3070    0.3696   -1.8521 C.ar      1 <0>        -0.0305
      3 C3         -1.6097    0.3513   -3.0394 C.ar      1 <0>        -0.1115
      4 C4         -0.9665    1.5088   -3.4814 C.ar      1 <0>         0.1593
      5 C5         -1.0419    2.6838   -2.7006 C.ar      1 <0>        -0.2021
      6 C6         -1.7525    2.6812   -1.5025 C.ar      1 <0>        -0.0177
      7 C7         -2.3834    1.5276   -1.0898 C.ar      1 <0>        -0.1328
      8 C8         -3.1585    1.5215    0.2025 C.3       1 <0>         0.1675
      9 N1         -3.0305    2.8269    0.8549 N.pl3     1 <0>        -0.6150
     10 C9         -3.9908    3.8923    0.5564 C.3       1 <0>         0.2264
     11 C10        -5.1223    3.8098    1.4943 C.1       1 <0>        -0.2123
     12 C11        -6.0248    3.7441    2.2423 C.1       1 <0>        -0.1793
     13 C12        -1.9976    3.0548    1.7575 C.ar      1 <0>         0.2573
     14 C13        -1.0184    2.0833    1.9523 C.ar      1 <0>        -0.2058
     15 C14        -0.0009    2.2994    2.8367 C.ar      1 <0>        -0.0112
     16 C15         0.0632    3.4995    3.5519 C.ar      1 <0>        -0.2120
     17 C16        -0.9193    4.4788    3.3584 C.ar      1 <0>         0.2070
     18 C17        -1.9417    4.2544    2.4590 C.ar      1 <0>        -0.2408
     19 F1         -0.8636    5.6405    4.0459 F         1 <0>        -0.1125
     20 C18         1.1611    3.7328    4.5069 C.2       1 <0>         0.5572
     21 O1          1.2151    4.7769    5.1280 O.2       1 <0>        -0.5265
     22 N2          2.1052    2.7889    4.6920 N.am      1 <0>        -0.7037
     23 C19         3.1966    3.0208    5.6414 C.3       1 <0>         0.0993
     24 C20         3.7369    1.6774    6.1354 C.3       1 <0>        -0.4382
     25 S1          2.4073    0.7557    6.9559 S.o       1 <0>         1.3750
     26 O2          2.0709    1.3973    8.1784 O.2       1 <0>        -0.8260
     27 C21         3.1784   -0.7460    7.4608 C.2       1 <0>        -0.3447
     28 C22         3.2759   -1.9302    6.7266 C.2       1 <0>         0.0399
     29 N3          3.9276   -2.7759    7.4922 N.2       1 <0>        -0.2923
     30 H1          4.6973   -2.6059    9.3336 H         1 <0>         0.4664
     31 N4          4.2160   -2.1911    8.6007 N.pl3     1 <0>        -0.2450
     32 N5          3.7844   -0.9797    8.6028 N.2       1 <0>        -0.2171
     33 C23         4.3011    3.7865    4.9597 C.2       1 <0>         0.5000
     34 O3          5.0091    4.5402    5.6057 O.co2     1 <0>        -0.6890
     35 O4          4.4868    3.6523    3.7622 O.co2     1 <0>        -0.6836
     36 C24        -0.3530    3.8856   -3.1940 C.2       1 <0>         0.5482
     37 N6          0.3105    3.7850   -4.3693 N.am      1 <0>        -0.6544
     38 C25         0.3296    2.6121   -5.0548 C.2       1 <0>         0.3971
     39 N7         -0.2684    1.5353   -4.6443 N.2       1 <0>        -0.5243
     40 C26         1.0839    2.5582   -6.3583 C.3       1 <0>        -0.1117
     41 O5         -0.3789    4.9304   -2.5699 O.2       1 <0>        -0.5025
     42 H2         -4.0506   -0.8471   -1.6690 H         1 <0>         0.0781
     43 H3         -2.5266   -1.7530   -1.8274 H         1 <0>         0.0735
     44 H4         -2.9275   -0.9474   -0.2917 H         1 <0>         0.0753
     45 H5         -1.5604   -0.5544   -3.6257 H         1 <0>         0.1394
     46 H6         -1.8119    3.5778   -0.9034 H         1 <0>         0.1413
     47 H7         -4.2095    1.3205   -0.0051 H         1 <0>         0.0932
     48 H8         -2.7633    0.7467    0.8595 H         1 <0>         0.0991
     49 H9         -3.5025    4.8612    0.6605 H         1 <0>         0.1043
     50 H10        -4.3557    3.7770   -0.4642 H         1 <0>         0.1011
     51 H11        -6.8320    3.6853    2.9112 H         1 <0>         0.2164
     52 H12        -1.0645    1.1553    1.4018 H         1 <0>         0.1335
     53 H13         0.7552    1.5425    2.9843 H         1 <0>         0.1398
     54 H14        -2.6996    5.0078    2.3029 H         1 <0>         0.1379
     55 H15         2.0620    1.9561    4.1966 H         1 <0>         0.3921
     56 H16         2.8247    3.5967    6.4889 H         1 <0>         0.0914
     57 H17         4.1088    1.1015    5.2879 H         1 <0>         0.1233
     58 H18         4.5490    1.8499    6.8417 H         1 <0>         0.1054
     59 H19         2.8933   -2.1134    5.7333 H         1 <0>         0.2135
     60 H20         2.1163    2.2645   -6.1687 H         1 <0>         0.0995
     61 H21         0.6146    1.8299   -7.0198 H         1 <0>         0.1032
     62 H22         1.0664    3.5410   -6.8292 H         1 <0>         0.0858
     63 H23         0.7766    4.5574   -4.7257 H         1 <0>         0.4186
@<TRIPOS>BOND
     1    1   42 1
     2    1   43 1
     3    1   44 1
     4    1    2 1
     5    2    7 ar
     6    2    3 ar
     7    3   45 1
     8    3    4 ar
     9    4    5 ar
    10    4   39 1
    11    5   36 1
    12    5    6 ar
    13    6   46 1
    14    6    7 ar
    15    7    8 1
    16    8    9 1
    17    8   47 1
    18    8   48 1
    19    9   10 1
    20    9   13 1
    21   10   11 1
    22   10   49 1
    23   10   50 1
    24   11   12 3
    25   12   51 1
    26   13   18 ar
    27   13   14 ar
    28   14   15 ar
    29   14   52 1
    30   15   16 ar
    31   15   53 1
    32   16   17 ar
    33   16   20 1
    34   17   18 ar
    35   17   19 1
    36   18   54 1
    37   20   21 2
    38   20   22 am
    39   22   23 1
    40   22   55 1
    41   23   24 1
    42   23   33 1
    43   23   56 1
    44   24   25 1
    45   24   57 1
    46   24   58 1
    47   25   26 2
    48   25   27 1
    49   27   32 2
    50   27   28 1
    51   28   59 1
    52   28   29 2
    53   29   31 1
    54   30   31 1
    55   31   32 1
    56   33   34 2
    57   33   35 1
    58   36   41 2
    59   36   37 am
    60   37   38 1
    61   37   63 1
    62   38   39 2
    63   38   40 1
    64   40   60 1
    65   40   61 1
    66   40   62 1
@<TRIPOS>MOLECULE
CHEMBL126914__8
   63    66     0     0     0
SMALL
USER_CHARGES

@<TRIPOS>ATOM
      1 C1         -3.0009   -0.8810   -1.3772 C.3       1 <0>        -0.1232
      2 C2         -2.3070    0.3696   -1.8521 C.ar      1 <0>        -0.0308
      3 C3         -1.6097    0.3513   -3.0394 C.ar      1 <0>        -0.1117
      4 C4         -0.9665    1.5088   -3.4814 C.ar      1 <0>         0.1594
      5 C5         -1.0419    2.6838   -2.7006 C.ar      1 <0>        -0.2020
      6 C6         -1.7525    2.6812   -1.5025 C.ar      1 <0>        -0.0176
      7 C7         -2.3834    1.5276   -1.0898 C.ar      1 <0>        -0.1329
      8 C8         -3.1585    1.5215    0.2025 C.3       1 <0>         0.1676
      9 N1         -3.0305    2.8269    0.8549 N.pl3     1 <0>        -0.6151
     10 C9         -3.9908    3.8923    0.5564 C.3       1 <0>         0.2264
     11 C10        -5.1223    3.8098    1.4943 C.1       1 <0>        -0.2126
     12 C11        -6.0248    3.7441    2.2423 C.1       1 <0>        -0.1789
     13 C12        -1.9976    3.0548    1.7575 C.ar      1 <0>         0.2571
     14 C13        -1.0184    2.0833    1.9523 C.ar      1 <0>        -0.2062
     15 C14        -0.0009    2.2994    2.8367 C.ar      1 <0>        -0.0117
     16 C15         0.0632    3.4995    3.5519 C.ar      1 <0>        -0.2115
     17 C16        -0.9193    4.4788    3.3584 C.ar      1 <0>         0.2072
     18 C17        -1.9417    4.2544    2.4590 C.ar      1 <0>        -0.2405
     19 F1         -0.8636    5.6405    4.0459 F         1 <0>        -0.1121
     20 C18         1.1611    3.7328    4.5069 C.2       1 <0>         0.5566
     21 O1          1.2151    4.7769    5.1280 O.2       1 <0>        -0.5257
     22 N2          2.1052    2.7889    4.6920 N.am      1 <0>        -0.7034
     23 C19         3.1966    3.0208    5.6414 C.3       1 <0>         0.0991
     24 C20         3.7369    1.6774    6.1354 C.3       1 <0>        -0.4388
     25 S1          2.4073    0.7557    6.9559 S.o       1 <0>         1.3672
     26 O2          2.0709    1.3973    8.1784 O.2       1 <0>        -0.8218
     27 C21         3.1784   -0.7460    7.4608 C.2       1 <0>        -0.3733
     28 C22         3.2693   -1.8906    6.7440 C.2       1 <0>         0.0318
     29 N3          3.9391   -2.7711    7.5231 N.pl3     1 <0>        -0.3948
     30 N4          4.2289   -2.1881    8.6335 N.2       1 <0>        -0.0869
     31 N5          3.7941   -0.9774    8.6257 N.2       1 <0>        -0.2071
     32 C23         4.3011    3.7865    4.9597 C.2       1 <0>         0.5000
     33 O3          5.0091    4.5402    5.6057 O.co2     1 <0>        -0.6880
     34 O4          4.4868    3.6523    3.7622 O.co2     1 <0>        -0.6852
     35 C24        -0.3530    3.8856   -3.1940 C.2       1 <0>         0.5481
     36 N6          0.3105    3.7850   -4.3693 N.am      1 <0>        -0.6543
     37 C25         0.3296    2.6121   -5.0548 C.2       1 <0>         0.3974
     38 N7         -0.2684    1.5353   -4.6443 N.2       1 <0>        -0.5246
     39 C26         1.0839    2.5582   -6.3583 C.3       1 <0>        -0.1118
     40 O5         -0.3789    4.9304   -2.5699 O.2       1 <0>        -0.5021
     41 H1         -4.0506   -0.8471   -1.6690 H         1 <0>         0.0782
     42 H2         -2.5266   -1.7530   -1.8274 H         1 <0>         0.0733
     43 H3         -2.9275   -0.9474   -0.2917 H         1 <0>         0.0750
     44 H4         -1.5604   -0.5544   -3.6257 H         1 <0>         0.1393
     45 H5         -1.8119    3.5778   -0.9034 H         1 <0>         0.1414
     46 H6         -4.2095    1.3205   -0.0051 H         1 <0>         0.0932
     47 H7         -2.7633    0.7467    0.8595 H         1 <0>         0.0987
     48 H8         -3.5025    4.8612    0.6605 H         1 <0>         0.1044
     49 H9         -4.3557    3.7770   -0.4642 H         1 <0>         0.1011
     50 H10        -6.8320    3.6853    2.9112 H         1 <0>         0.2165
     51 H11        -1.0645    1.1553    1.4018 H         1 <0>         0.1330
     52 H12         0.7552    1.5425    2.9843 H         1 <0>         0.1390
     53 H13        -2.6996    5.0078    2.3029 H         1 <0>         0.1381
     54 H14         2.0620    1.9561    4.1966 H         1 <0>         0.3911
     55 H15         2.8247    3.5967    6.4889 H         1 <0>         0.0918
     56 H16         4.1088    1.1015    5.2879 H         1 <0>         0.1201
     57 H17         4.5490    1.8499    6.8417 H         1 <0>         0.1066
     58 H18         2.8841   -2.0659    5.7504 H         1 <0>         0.2099
     59 H19         2.1163    2.2645   -6.1687 H         1 <0>         0.0995
     60 H20         0.6146    1.8299   -7.0198 H         1 <0>         0.1032
     61 H21         1.0664    3.5410   -6.8292 H         1 <0>         0.0860
     62 H22         0.7766    4.5574   -4.7257 H         1 <0>         0.4187
     63 H23         4.1624   -3.6847    7.2857 H         1 <0>         0.4487
@<TRIPOS>BOND
     1    1   41 1
     2    1   42 1
     3    1   43 1
     4    1    2 1
     5    2    7 ar
     6    2    3 ar
     7    3   44 1
     8    3    4 ar
     9    4    5 ar
    10    4   38 1
    11    5   35 1
    12    5    6 ar
    13    6   45 1
    14    6    7 ar
    15    7    8 1
    16    8    9 1
    17    8   46 1
    18    8   47 1
    19    9   10 1
    20    9   13 1
    21   10   11 1
    22   10   48 1
    23   10   49 1
    24   11   12 3
    25   12   50 1
    26   13   18 ar
    27   13   14 ar
    28   14   15 ar
    29   14   51 1
    30   15   16 ar
    31   15   52 1
    32   16   17 ar
    33   16   20 1
    34   17   18 ar
    35   17   19 1
    36   18   53 1
    37   20   21 2
    38   20   22 am
    39   22   23 1
    40   22   54 1
    41   23   24 1
    42   23   32 1
    43   23   55 1
    44   24   25 1
    45   24   56 1
    46   24   57 1
    47   25   26 2
    48   25   27 1
    49   27   31 1
    50   27   28 2
    51   28   58 1
    52   28   29 1
    53   29   30 1
    54   29   63 1
    55   30   31 2
    56   32   33 2
    57   32   34 1
    58   35   40 2
    59   35   36 am
    60   36   37 1
    61   36   62 1
    62   37   38 2
    63   37   39 1
    64   39   59 1
    65   39   60 1
    66   39   61 1
@<TRIPOS>MOLECULE
CHEMBL126914__9
   62    65     0     0     0
SMALL
USER_CHARGES

@<TRIPOS>ATOM
      1 C1         -3.0009   -0.8810   -1.3772 C.3       1 <0>        -0.1239
      2 C2         -2.3070    0.3696   -1.8521 C.ar      1 <0>        -0.0307
      3 C3         -1.6097    0.3513   -3.0394 C.ar      1 <0>        -0.1114
      4 C4         -0.9665    1.5088   -3.4814 C.ar      1 <0>         0.1556
      5 C5         -1.0419    2.6838   -2.7006 C.ar      1 <0>        -0.2015
      6 C6         -1.7525    2.6812   -1.5025 C.ar      1 <0>        -0.0175
      7 C7         -2.3834    1.5276   -1.0898 C.ar      1 <0>        -0.1286
      8 C8         -3.1585    1.5215    0.2025 C.3       1 <0>         0.1670
      9 N1         -3.0305    2.8269    0.8549 N.pl3     1 <0>        -0.6176
     10 C9         -3.9908    3.8923    0.5564 C.3       1 <0>         0.2279
     11 C10        -5.1223    3.8098    1.4943 C.1       1 <0>        -0.2081
     12 C11        -6.0248    3.7441    2.2423 C.1       1 <0>        -0.1853
     13 C12        -1.9976    3.0548    1.7575 C.ar      1 <0>         0.2492
     14 C13        -1.0184    2.0833    1.9523 C.ar      1 <0>        -0.2042
     15 C14        -0.0009    2.2994    2.8367 C.ar      1 <0>        -0.0024
     16 C15         0.0632    3.4995    3.5519 C.ar      1 <0>        -0.2001
     17 C16        -0.9193    4.4788    3.3584 C.ar      1 <0>         0.2011
     18 C17        -1.9417    4.2544    2.4590 C.ar      1 <0>        -0.2420
     19 F1         -0.8636    5.6405    4.0459 F         1 <0>        -0.1142
     20 C18         1.1611    3.7328    4.5069 C.2       1 <0>         0.5563
     21 O1          1.2151    4.7769    5.1280 O.2       1 <0>        -0.5440
     22 N2          2.1052    2.7889    4.6920 N.am      1 <0>        -0.6871
     23 C19         3.1966    3.0208    5.6414 C.3       1 <0>         0.1019
     24 C20         3.7369    1.6774    6.1354 C.3       1 <0>        -0.4408
     25 S1          2.4073    0.7557    6.9559 S.o       1 <0>         1.3591
     26 O2          1.4508    0.3430    5.9895 O.2       1 <0>        -0.8786
     27 C21         3.1784   -0.7460    7.4608 C.2       1 <0>        -0.4422
     28 C22         3.2759   -1.9302    6.7266 C.2       1 <0>        -0.0673
     29 N3          3.9276   -2.7759    7.4922 N.2       1 <0>        -0.3769
     30 N4          4.2160   -2.1911    8.6007 N.2       1 <0>        -0.2091
     31 N5          3.7844   -0.9797    8.6028 N.2       1 <0>        -0.2976
     32 C23         4.3011    3.7865    4.9597 C.2       1 <0>         0.5020
     33 O3          5.0091    4.5402    5.6057 O.co2     1 <0>        -0.6954
     34 O4          4.4868    3.6523    3.7622 O.co2     1 <0>        -0.6942
     35 C24        -0.3530    3.8856   -3.1940 C.2       1 <0>         0.5487
     36 N6          0.3105    3.7850   -4.3693 N.am      1 <0>        -0.6547
     37 C25         0.3296    2.6121   -5.0548 C.2       1 <0>         0.3927
     38 N7         -0.2684    1.5353   -4.6443 N.2       1 <0>        -0.5225
     39 C26         1.0839    2.5582   -6.3583 C.3       1 <0>        -0.1097
     40 O5         -0.3789    4.9304   -2.5699 O.2       1 <0>        -0.5023
     41 H1         -4.0506   -0.8471   -1.6690 H         1 <0>         0.0775
     42 H2         -2.5266   -1.7530   -1.8274 H         1 <0>         0.0733
     43 H3         -2.9275   -0.9474   -0.2917 H         1 <0>         0.0766
     44 H4         -1.5604   -0.5544   -3.6257 H         1 <0>         0.1388
     45 H5         -1.8119    3.5778   -0.9034 H         1 <0>         0.1426
     46 H6         -4.2095    1.3205   -0.0051 H         1 <0>         0.0920
     47 H7         -2.7633    0.7467    0.8595 H         1 <0>         0.0993
     48 H8         -3.5025    4.8612    0.6605 H         1 <0>         0.1035
     49 H9         -4.3557    3.7770   -0.4642 H         1 <0>         0.0986
     50 H10        -6.8320    3.6853    2.9112 H         1 <0>         0.2157
     51 H11        -1.0645    1.1553    1.4018 H         1 <0>         0.1295
     52 H12         0.7552    1.5425    2.9843 H         1 <0>         0.1391
     53 H13        -2.6996    5.0078    2.3029 H         1 <0>         0.1355
     54 H14         2.0620    1.9561    4.1966 H         1 <0>         0.3967
     55 H15         2.8247    3.5967    6.4889 H         1 <0>         0.0925
     56 H16         4.1088    1.1015    5.2879 H         1 <0>         0.0796
     57 H17         4.5490    1.8499    6.8417 H         1 <0>         0.1215
     58 H18         2.8933   -2.1134    5.7333 H         1 <0>         0.1333
     59 H19         2.1163    2.2645   -6.1687 H         1 <0>         0.0985
     60 H20         0.6146    1.8299   -7.0198 H         1 <0>         0.1019
     61 H21         1.0664    3.5410   -6.8292 H         1 <0>         0.0846
     62 H22         0.7766    4.5574   -4.7257 H         1 <0>         0.4174
@<TRIPOS>BOND
     1    1   41 1
     2    1   42 1
     3    1   43 1
     4    1    2 1
     5    2    7 ar
     6    2    3 ar
     7    3   44 1
     8    3    4 ar
     9    4    5 ar
    10    4   38 1
    11    5   35 1
    12    5    6 ar
    13    6   45 1
    14    6    7 ar
    15    7    8 1
    16    8    9 1
    17    8   46 1
    18    8   47 1
    19    9   10 1
    20    9   13 1
    21   10   11 1
    22   10   48 1
    23   10   49 1
    24   11   12 3
    25   12   50 1
    26   13   18 ar
    27   13   14 ar
    28   14   15 ar
    29   14   51 1
    30   15   16 ar
    31   15   52 1
    32   16   17 ar
    33   16   20 1
    34   17   18 ar
    35   17   19 1
    36   18   53 1
    37   20   21 2
    38   20   22 am
    39   22   23 1
    40   22   54 1
    41   23   24 1
    42   23   32 1
    43   23   55 1
    44   24   25 1
    45   24   56 1
    46   24   57 1
    47   25   26 2
    48   25   27 1
    49   27   31 2
    50   27   28 1
    51   28   58 1
    52   28   29 2
    53   29   30 1
    54   30   31 1
    55   32   33 2
    56   32   34 1
    57   35   40 2
    58   35   36 am
    59   36   37 1
    60   36   62 1
    61   37   38 2
    62   37   39 1
    63   39   59 1
    64   39   60 1
    65   39   61 1
@<TRIPOS>MOLECULE
CHEMBL126914__10
   63    66     0     0     0
SMALL
USER_CHARGES

@<TRIPOS>ATOM
      1 C1         -3.0009   -0.8810   -1.3772 C.3       1 <0>        -0.1236
      2 C2         -2.3070    0.3696   -1.8521 C.ar      1 <0>        -0.0308
      3 C3         -1.6097    0.3513   -3.0394 C.ar      1 <0>        -0.1115
      4 C4         -0.9665    1.5088   -3.4814 C.ar      1 <0>         0.1585
      5 C5         -1.0419    2.6838   -2.7006 C.ar      1 <0>        -0.2022
      6 C6         -1.7525    2.6812   -1.5025 C.ar      1 <0>        -0.0178
      7 C7         -2.3834    1.5276   -1.0898 C.ar      1 <0>        -0.1319
      8 C8         -3.1585    1.5215    0.2025 C.3       1 <0>         0.1673
      9 N1         -3.0305    2.8269    0.8549 N.pl3     1 <0>        -0.6155
     10 C9         -3.9908    3.8923    0.5564 C.3       1 <0>         0.2267
     11 C10        -5.1223    3.8098    1.4943 C.1       1 <0>        -0.2112
     12 C11        -6.0248    3.7441    2.2423 C.1       1 <0>        -0.1807
     13 C12        -1.9976    3.0548    1.7575 C.ar      1 <0>         0.2566
     14 C13        -1.0184    2.0833    1.9523 C.ar      1 <0>        -0.2062
     15 C14        -0.0009    2.2994    2.8367 C.ar      1 <0>        -0.0032
     16 C15         0.0632    3.4995    3.5519 C.ar      1 <0>        -0.2104
     17 C16        -0.9193    4.4788    3.3584 C.ar      1 <0>         0.2054
     18 C17        -1.9417    4.2544    2.4590 C.ar      1 <0>        -0.2422
     19 F1         -0.8636    5.6405    4.0459 F         1 <0>        -0.1130
     20 C18         1.1611    3.7328    4.5069 C.2       1 <0>         0.5608
     21 O1          1.2151    4.7769    5.1280 O.2       1 <0>        -0.5349
     22 N2          2.1052    2.7889    4.6920 N.am      1 <0>        -0.6996
     23 C19         3.1966    3.0208    5.6414 C.3       1 <0>         0.0974
     24 C20         3.7369    1.6774    6.1354 C.3       1 <0>        -0.4342
     25 S1          2.4073    0.7557    6.9559 S.o       1 <0>         1.3799
     26 O2          1.4508    0.3430    5.9895 O.2       1 <0>        -0.8318
     27 C21         3.1784   -0.7460    7.4608 C.2       1 <0>        -0.3439
     28 C22         3.2759   -1.9302    6.7266 C.2       1 <0>         0.0318
     29 N3          3.9276   -2.7759    7.4922 N.2       1 <0>        -0.2917
     30 H1          4.6973   -2.6059    9.3336 H         1 <0>         0.4682
     31 N4          4.2160   -2.1911    8.6007 N.pl3     1 <0>        -0.2422
     32 N5          3.7844   -0.9797    8.6028 N.2       1 <0>        -0.2066
     33 C23         4.3011    3.7865    4.9597 C.2       1 <0>         0.4999
     34 O3          5.0091    4.5402    5.6057 O.co2     1 <0>        -0.6879
     35 O4          4.4868    3.6523    3.7622 O.co2     1 <0>        -0.6848
     36 C24        -0.3530    3.8856   -3.1940 C.2       1 <0>         0.5486
     37 N6          0.3105    3.7850   -4.3693 N.am      1 <0>        -0.6543
     38 C25         0.3296    2.6121   -5.0548 C.2       1 <0>         0.3962
     39 N7         -0.2684    1.5353   -4.6443 N.2       1 <0>        -0.5239
     40 C26         1.0839    2.5582   -6.3583 C.3       1 <0>        -0.1112
     41 O5         -0.3789    4.9304   -2.5699 O.2       1 <0>        -0.5025
     42 H2         -4.0506   -0.8471   -1.6690 H         1 <0>         0.0785
     43 H3         -2.5266   -1.7530   -1.8274 H         1 <0>         0.0734
     44 H4         -2.9275   -0.9474   -0.2917 H         1 <0>         0.0749
     45 H5         -1.5604   -0.5544   -3.6257 H         1 <0>         0.1395
     46 H6         -1.8119    3.5778   -0.9034 H         1 <0>         0.1416
     47 H7         -4.2095    1.3205   -0.0051 H         1 <0>         0.0933
     48 H8         -2.7633    0.7467    0.8595 H         1 <0>         0.0981
     49 H9         -3.5025    4.8612    0.6605 H         1 <0>         0.1043
     50 H10        -4.3557    3.7770   -0.4642 H         1 <0>         0.1008
     51 H11        -6.8320    3.6853    2.9112 H         1 <0>         0.2165
     52 H12        -1.0645    1.1553    1.4018 H         1 <0>         0.1307
     53 H13         0.7552    1.5425    2.9843 H         1 <0>         0.1362
     54 H14        -2.6996    5.0078    2.3029 H         1 <0>         0.1379
     55 H15         2.0620    1.9561    4.1966 H         1 <0>         0.3960
     56 H16         2.8247    3.5967    6.4889 H         1 <0>         0.0978
     57 H17         4.1088    1.1015    5.2879 H         1 <0>         0.0928
     58 H18         4.5490    1.8499    6.8417 H         1 <0>         0.1325
     59 H19         2.8933   -2.1134    5.7333 H         1 <0>         0.2010
     60 H20         2.1163    2.2645   -6.1687 H         1 <0>         0.0992
     61 H21         0.6146    1.8299   -7.0198 H         1 <0>         0.1031
     62 H22         1.0664    3.5410   -6.8292 H         1 <0>         0.0859
     63 H23         0.7766    4.5574   -4.7257 H         1 <0>         0.4185
@<TRIPOS>BOND
     1    1   42 1
     2    1   43 1
     3    1   44 1
     4    1    2 1
     5    2    7 ar
     6    2    3 ar
     7    3   45 1
     8    3    4 ar
     9    4    5 ar
    10    4   39 1
    11    5   36 1
    12    5    6 ar
    13    6   46 1
    14    6    7 ar
    15    7    8 1
    16    8    9 1
    17    8   47 1
    18    8   48 1
    19    9   10 1
    20    9   13 1
    21   10   11 1
    22   10   49 1
    23   10   50 1
    24   11   12 3
    25   12   51 1
    26   13   18 ar
    27   13   14 ar
    28   14   15 ar
    29   14   52 1
    30   15   16 ar
    31   15   53 1
    32   16   17 ar
    33   16   20 1
    34   17   18 ar
    35   17   19 1
    36   18   54 1
    37   20   21 2
    38   20   22 am
    39   22   23 1
    40   22   55 1
    41   23   24 1
    42   23   33 1
    43   23   56 1
    44   24   25 1
    45   24   57 1
    46   24   58 1
    47   25   26 2
    48   25   27 1
    49   27   32 2
    50   27   28 1
    51   28   59 1
    52   28   29 2
    53   29   31 1
    54   30   31 1
    55   31   32 1
    56   33   34 2
    57   33   35 1
    58   36   41 2
    59   36   37 am
    60   37   38 1
    61   37   63 1
    62   38   39 2
    63   38   40 1
    64   40   60 1
    65   40   61 1
    66   40   62 1
@<TRIPOS>MOLECULE
CHEMBL126914__11
   63    66     0     0     0
SMALL
USER_CHARGES

@<TRIPOS>ATOM
      1 C1         -3.0009   -0.8810   -1.3772 C.3       1 <0>        -0.1234
      2 C2         -2.3070    0.3696   -1.8521 C.ar      1 <0>        -0.0311
      3 C3         -1.6097    0.3513   -3.0394 C.ar      1 <0>        -0.1117
      4 C4         -0.9665    1.5088   -3.4814 C.ar      1 <0>         0.1586
      5 C5         -1.0419    2.6838   -2.7006 C.ar      1 <0>        -0.2021
      6 C6         -1.7525    2.6812   -1.5025 C.ar      1 <0>        -0.0176
      7 C7         -2.3834    1.5276   -1.0898 C.ar      1 <0>        -0.1320
      8 C8         -3.1585    1.5215    0.2025 C.3       1 <0>         0.1675
      9 N1         -3.0305    2.8269    0.8549 N.pl3     1 <0>        -0.6156
     10 C9         -3.9908    3.8923    0.5564 C.3       1 <0>         0.2267
     11 C10        -5.1223    3.8098    1.4943 C.1       1 <0>        -0.2116
     12 C11        -6.0248    3.7441    2.2423 C.1       1 <0>        -0.1803
     13 C12        -1.9976    3.0548    1.7575 C.ar      1 <0>         0.2564
     14 C13        -1.0184    2.0833    1.9523 C.ar      1 <0>        -0.2066
     15 C14        -0.0009    2.2994    2.8367 C.ar      1 <0>        -0.0035
     16 C15         0.0632    3.4995    3.5519 C.ar      1 <0>        -0.2098
     17 C16        -0.9193    4.4788    3.3584 C.ar      1 <0>         0.2057
     18 C17        -1.9417    4.2544    2.4590 C.ar      1 <0>        -0.2419
     19 F1         -0.8636    5.6405    4.0459 F         1 <0>        -0.1126
     20 C18         1.1611    3.7328    4.5069 C.2       1 <0>         0.5604
     21 O1          1.2151    4.7769    5.1280 O.2       1 <0>        -0.5341
     22 N2          2.1052    2.7889    4.6920 N.am      1 <0>        -0.6992
     23 C19         3.1966    3.0208    5.6414 C.3       1 <0>         0.0971
     24 C20         3.7369    1.6774    6.1354 C.3       1 <0>        -0.4340
     25 S1          2.4073    0.7557    6.9559 S.o       1 <0>         1.3784
     26 O2          1.4508    0.3430    5.9895 O.2       1 <0>        -0.8405
     27 C21         3.1784   -0.7460    7.4608 C.2       1 <0>        -0.3693
     28 C22         3.2693   -1.8906    6.7440 C.2       1 <0>         0.0247
     29 N3          3.9391   -2.7711    7.5231 N.pl3     1 <0>        -0.3942
     30 N4          4.2289   -2.1881    8.6335 N.2       1 <0>        -0.0816
     31 N5          3.7941   -0.9774    8.6256 N.2       1 <0>        -0.1967
     32 C23         4.3011    3.7865    4.9597 C.2       1 <0>         0.4999
     33 O3          5.0091    4.5402    5.6057 O.co2     1 <0>        -0.6868
     34 O4          4.4868    3.6523    3.7622 O.co2     1 <0>        -0.6862
     35 C24        -0.3530    3.8856   -3.1940 C.2       1 <0>         0.5485
     36 N6          0.3105    3.7850   -4.3693 N.am      1 <0>        -0.6543
     37 C25         0.3296    2.6121   -5.0548 C.2       1 <0>         0.3964
     38 N7         -0.2684    1.5353   -4.6443 N.2       1 <0>        -0.5241
     39 C26         1.0839    2.5582   -6.3583 C.3       1 <0>        -0.1113
     40 O5         -0.3789    4.9304   -2.5699 O.2       1 <0>        -0.5021
     41 H1         -4.0506   -0.8471   -1.6690 H         1 <0>         0.0787
     42 H2         -2.5266   -1.7530   -1.8274 H         1 <0>         0.0732
     43 H3         -2.9275   -0.9474   -0.2917 H         1 <0>         0.0746
     44 H4         -1.5604   -0.5544   -3.6257 H         1 <0>         0.1394
     45 H5         -1.8119    3.5778   -0.9034 H         1 <0>         0.1417
     46 H6         -4.2095    1.3205   -0.0051 H         1 <0>         0.0933
     47 H7         -2.7633    0.7467    0.8595 H         1 <0>         0.0977
     48 H8         -3.5025    4.8612    0.6605 H         1 <0>         0.1044
     49 H9         -4.3557    3.7770   -0.4642 H         1 <0>         0.1008
     50 H10        -6.8320    3.6853    2.9112 H         1 <0>         0.2166
     51 H11        -1.0645    1.1553    1.4018 H         1 <0>         0.1302
     52 H12         0.7552    1.5425    2.9843 H         1 <0>         0.1353
     53 H13        -2.6996    5.0078    2.3029 H         1 <0>         0.1381
     54 H14         2.0620    1.9561    4.1966 H         1 <0>         0.3951
     55 H15         2.8247    3.5967    6.4889 H         1 <0>         0.0984
     56 H16         4.1088    1.1015    5.2879 H         1 <0>         0.0899
     57 H17         4.5490    1.8499    6.8417 H         1 <0>         0.1339
     58 H18         2.8841   -2.0659    5.7504 H         1 <0>         0.1977
     59 H19         2.1163    2.2645   -6.1687 H         1 <0>         0.0992
     60 H20         0.6146    1.8299   -7.0198 H         1 <0>         0.1031
     61 H21         1.0664    3.5410   -6.8292 H         1 <0>         0.0860
     62 H22         0.7766    4.5574   -4.7257 H         1 <0>         0.4186
     63 H23         4.1624   -3.6847    7.2857 H         1 <0>         0.4484
@<TRIPOS>BOND
     1    1   41 1
     2    1   42 1
     3    1   43 1
     4    1    2 1
     5    2    7 ar
     6    2    3 ar
     7    3   44 1
     8    3    4 ar
     9    4    5 ar
    10    4   38 1
    11    5   35 1
    12    5    6 ar
    13    6   45 1
    14    6    7 ar
    15    7    8 1
    16    8    9 1
    17    8   46 1
    18    8   47 1
    19    9   10 1
    20    9   13 1
    21   10   11 1
    22   10   48 1
    23   10   49 1
    24   11   12 3
    25   12   50 1
    26   13   18 ar
    27   13   14 ar
    28   14   15 ar
    29   14   51 1
    30   15   16 ar
    31   15   52 1
    32   16   17 ar
    33   16   20 1
    34   17   18 ar
    35   17   19 1
    36   18   53 1
    37   20   21 2
    38   20   22 am
    39   22   23 1
    40   22   54 1
    41   23   24 1
    42   23   32 1
    43   23   55 1
    44   24   25 1
    45   24   56 1
    46   24   57 1
    47   25   26 2
    48   25   27 1
    49   27   31 1
    50   27   28 2
    51   28   58 1
    52   28   29 1
    53   29   30 1
    54   29   63 1
    55   30   31 2
    56   32   33 2
    57   32   34 1
    58   35   40 2
    59   35   36 am
    60   36   37 1
    61   36   62 1
    62   37   38 2
    63   37   39 1
    64   39   59 1
    65   39   60 1
    66   39   61 1
@<TRIPOS>MOLECULE
CHEMBL353813
   50    54     0     0     0
SMALL
USER_CHARGES

@<TRIPOS>ATOM
      1 C1         -2.0260   -2.5978    1.5564 C.ar      1 <0>        -0.1082
      2 C2         -2.9070   -3.1693    2.4226 C.ar      1 <0>        -0.0988
      3 C3         -4.1100   -2.5101    2.7265 C.ar      1 <0>        -0.0487
      4 C4         -5.0439   -3.0683    3.6162 C.ar      1 <0>        -0.0873
      5 C5         -6.1984   -2.4006    3.8869 C.ar      1 <0>        -0.0799
      6 C6         -6.4711   -1.1689    3.2943 C.ar      1 <0>        -0.0929
      7 C7         -5.5907   -0.5980    2.4276 C.ar      1 <0>        -0.1075
      8 C8         -4.3871   -1.2572    2.1242 C.ar      1 <0>        -0.0471
      9 C9         -3.4534   -0.6987    1.2351 C.ar      1 <0>        -0.0805
     10 C10        -2.2983   -1.3662    0.9645 C.ar      1 <0>        -0.1128
     11 C11        -1.2992   -0.7641    0.0104 C.3       1 <0>         0.1581
     12 N1         -1.6705   -1.1052   -1.3651 N.pl3     1 <0>        -0.6062
     13 C12        -2.4605   -0.1714   -2.1788 C.3       1 <0>         0.1160
     14 C13        -3.5548   -0.9791   -2.8888 C.3       1 <0>        -0.1407
     15 C14        -2.8942   -1.9783   -3.8379 C.3       1 <0>        -0.0803
     16 C15        -1.8460   -2.7819   -3.1129 C.ar      1 <0>        -0.1032
     17 C16        -1.2728   -2.3264   -1.9289 C.ar      1 <0>         0.2726
     18 C17        -0.3019   -3.0772   -1.2826 C.ar      1 <0>        -0.1854
     19 C18         0.1063   -4.2885   -1.8174 C.ar      1 <0>         0.1377
     20 C19        -0.4649   -4.7528   -3.0133 C.ar      1 <0>        -0.0011
     21 C20        -1.4506   -3.9908   -3.6497 C.ar      1 <0>        -0.0369
     22 N2          0.1180   -5.9499   -3.2960 N.pl3     1 <0>        -0.5241
     23 C21         0.9932   -6.2427   -2.3679 C.cat     1 <0>         0.6448
     24 N3          1.0260   -5.2493   -1.4303 N.pl3     1 <0>        -0.5739
     25 H1          1.5887   -5.2219   -0.6407 H         1 <0>         0.4569
     26 N4          1.7674   -7.3848   -2.3402 N.pl3     1 <0>        -0.8000
     27 C22        -7.1973   -3.0022    4.8415 C.3       1 <0>         0.1116
     28 O1         -6.9090   -2.5647    6.1710 O.3       1 <0>        -0.5672
     29 H2         -1.1000   -3.1045    1.3281 H         1 <0>         0.1159
     30 H3         -2.6826   -4.1246    2.8736 H         1 <0>         0.1268
     31 H4         -4.8464   -4.0222    4.0824 H         1 <0>         0.1290
     32 H5         -7.3951   -0.6600    3.5260 H         1 <0>         0.1279
     33 H6         -5.8158    0.3566    1.9754 H         1 <0>         0.1314
     34 H7         -3.6513    0.2550    0.7686 H         1 <0>         0.1268
     35 H8         -1.2930    0.3197    0.1269 H         1 <0>         0.0980
     36 H9         -0.3065   -1.1585    0.2272 H         1 <0>         0.0864
     37 H10        -2.9159    0.5831   -1.5374 H         1 <0>         0.0907
     38 H11        -1.8186    0.3092   -2.9170 H         1 <0>         0.0749
     39 H12        -4.1499   -1.5159   -2.1500 H         1 <0>         0.0761
     40 H13        -4.1959   -0.3049   -3.4568 H         1 <0>         0.0907
     41 H14        -3.6529   -2.6524   -4.2355 H         1 <0>         0.0883
     42 H15        -2.4273   -1.4376   -4.6612 H         1 <0>         0.0882
     43 H16         0.1360   -2.7177   -0.3632 H         1 <0>         0.1467
     44 H17        -1.8943   -4.3422   -4.5695 H         1 <0>         0.1486
     45 H18         1.6839   -8.0445   -3.0464 H         1 <0>         0.4412
     46 H19         2.3950   -7.5278   -1.6146 H         1 <0>         0.4413
     47 H20        -8.2022   -2.6839    4.5641 H         1 <0>         0.0588
     48 H21        -7.1348   -4.0894    4.7953 H         1 <0>         0.0567
     49 H22        -7.5138   -2.9139    6.8398 H         1 <0>         0.3855
     50 H23        -0.0846   -6.5020   -4.0674 H         1 <0>         0.4554
@<TRIPOS>BOND
     1    1   10 ar
     2    1    2 ar
     3    1   29 1
     4    2    3 ar
     5    2   30 1
     6    3    8 ar
     7    3    4 ar
     8    4    5 ar
     9    4   31 1
    10    5    6 ar
    11    5   27 1
    12    6    7 ar
    13    6   32 1
    14    7    8 ar
    15    7   33 1
    16    8    9 ar
    17    9   10 ar
    18    9   34 1
    19   10   11 1
    20   11   12 1
    21   11   35 1
    22   11   36 1
    23   12   17 1
    24   12   13 1
    25   13   14 1
    26   13   37 1
    27   13   38 1
    28   14   15 1
    29   14   39 1
    30   14   40 1
    31   15   16 1
    32   15   41 1
    33   15   42 1
    34   16   21 ar
    35   16   17 ar
    36   17   18 ar
    37   18   19 ar
    38   18   43 1
    39   19   24 1
    40   19   20 ar
    41   20   21 ar
    42   20   22 1
    43   21   44 1
    44   22   23 2
    45   22   50 1
    46   23   24 1
    47   23   26 1
    48   24   25 1
    49   26   45 1
    50   26   46 1
    51   27   28 1
    52   27   47 1
    53   27   48 1
    54   28   49 1
@<TRIPOS>MOLECULE
CHEMBL56662
   58    62     0     0     0
SMALL
USER_CHARGES

@<TRIPOS>ATOM
      1 C1         -0.0151    1.3660    0.2302 C.ar      1 <0>        -0.1240
      2 C2          1.1690    2.0793    0.2233 C.ar      1 <0>        -0.0227
      3 C3          2.3662    1.4292   -0.0109 C.ar      1 <0>        -0.6794
      4 C4          2.3795    0.0657   -0.2378 C.ar      1 <0>        -0.0188
      5 C5          1.1955   -0.6478   -0.2301 C.ar      1 <0>        -0.1175
      6 C6         -0.0019    0.0025    0.0028 C.ar      1 <0>        -0.0484
      7 C7         -1.2926   -0.7753    0.0107 C.3       1 <0>         0.1495
      8 N1         -1.7874   -0.9143   -1.3612 N.pl3     1 <0>        -0.6112
      9 C8         -1.4906   -2.1221   -2.1432 C.3       1 <0>         0.1161
     10 C9         -1.0682   -1.6774   -3.5496 C.3       1 <0>        -0.1407
     11 C10        -2.2457   -0.9686   -4.2181 C.3       1 <0>        -0.0834
     12 C11        -2.7910    0.1115   -3.3201 C.ar      1 <0>        -0.0996
     13 C12        -2.5571    0.1009   -1.9479 C.ar      1 <0>         0.2651
     14 C13        -3.0770    1.0996   -1.1376 C.ar      1 <0>        -0.1864
     15 C14        -3.8382    2.1154   -1.6930 C.ar      1 <0>         0.1353
     16 C15        -4.0812    2.1308   -3.0760 C.ar      1 <0>         0.0082
     17 C16        -3.5425    1.1233   -3.8835 C.ar      1 <0>        -0.0348
     18 N2         -4.8446    3.2274   -3.3352 N.pl3     1 <0>        -0.5255
     19 C17        -5.0807    3.8720   -2.2208 C.cat     1 <0>         0.6497
     20 N3         -4.4819    3.2274   -1.1755 N.pl3     1 <0>        -0.5757
     21 H1         -4.5038    3.4979   -0.2443 H         1 <0>         0.4567
     22 N4         -5.8235    5.0305   -2.1172 N.pl3     1 <0>        -0.7963
     23 S1          3.8753    2.3387   -0.0208 S.o2      1 <0>         2.6857
     24 O1          4.7955    1.5901   -0.8032 O.2       1 <0>        -0.9301
     25 O2          3.5362    3.6849   -0.3240 O.2       1 <0>        -0.9340
     26 N5          4.4593    2.3352    1.5288 N.pl3     1 <0>        -1.0124
     27 C18         4.0832    3.3914    2.4813 C.3       1 <0>         0.0934
     28 C19         3.6020    2.7288    3.7763 C.3       1 <0>        -0.0219
     29 N6          4.6360    1.8094    4.2680 N.4       1 <0>        -0.5037
     30 C20         4.8266    0.7128    3.3104 C.3       1 <0>        -0.0220
     31 C21         5.3639    1.2724    1.9939 C.3       1 <0>         0.0920
     32 H2         -0.9500    1.8731    0.4176 H         1 <0>         0.1307
     33 H3          1.1586    3.1446    0.4006 H         1 <0>         0.1406
     34 H4          3.3148   -0.4421   -0.4215 H         1 <0>         0.1444
     35 H5          1.2058   -1.7130   -0.4081 H         1 <0>         0.1379
     36 H6         -1.1187   -1.7636    0.4362 H         1 <0>         0.1044
     37 H7         -2.0321   -0.2460    0.6117 H         1 <0>         0.0920
     38 H8         -0.6792   -2.6769   -1.6721 H         1 <0>         0.0902
     39 H9         -2.3799   -2.7492   -2.2058 H         1 <0>         0.0786
     40 H10        -0.2231   -0.9928   -3.4776 H         1 <0>         0.0739
     41 H11        -0.7848   -2.5496   -4.1387 H         1 <0>         0.0943
     42 H12        -1.9121   -0.5228   -5.1552 H         1 <0>         0.0914
     43 H13        -3.0317   -1.6947   -4.4256 H         1 <0>         0.0917
     44 H14        -2.8887    1.0851   -0.0743 H         1 <0>         0.1442
     45 H15        -3.7252    1.1293   -4.9479 H         1 <0>         0.1523
     46 H16        -6.2167    5.4271   -2.9102 H         1 <0>         0.4435
     47 H17        -5.9524    5.4481   -1.2512 H         1 <0>         0.4422
     48 H18         4.9483    4.0203    2.6911 H         1 <0>         0.1084
     49 H19         3.2807    3.9963    2.0593 H         1 <0>         0.1336
     50 H20         3.4103    3.4952    4.5272 H         1 <0>         0.1499
     51 H21         2.6847    2.1733    3.5813 H         1 <0>         0.1340
     52 H22         5.5043    2.3108    4.3804 H         1 <0>         0.4329
     53 H23         5.5371   -0.0063    3.7179 H         1 <0>         0.1517
     54 H24         3.8722    0.2183    3.1294 H         1 <0>         0.1346
     55 H25         5.4077    0.4771    1.2498 H         1 <0>         0.1359
     56 H26         6.3606    1.6838    2.1537 H         1 <0>         0.1084
     57 H27        -5.1646    3.4912   -4.2121 H         1 <0>         0.4579
     58 H28         4.3514    1.4306    5.1589 H         1 <0>         0.4371
@<TRIPOS>BOND
     1    1    6 ar
     2    1    2 ar
     3    1   32 1
     4    2    3 ar
     5    2   33 1
     6    3    4 ar
     7    3   23 1
     8    4    5 ar
     9    4   34 1
    10    5    6 ar
    11    5   35 1
    12    6    7 1
    13    7    8 1
    14    7   36 1
    15    7   37 1
    16    8   13 1
    17    8    9 1
    18    9   10 1
    19    9   38 1
    20    9   39 1
    21   10   11 1
    22   10   40 1
    23   10   41 1
    24   11   12 1
    25   11   42 1
    26   11   43 1
    27   12   17 ar
    28   12   13 ar
    29   13   14 ar
    30   14   15 ar
    31   14   44 1
    32   15   20 1
    33   15   16 ar
    34   16   17 ar
    35   16   18 1
    36   17   45 1
    37   18   19 2
    38   18   57 1
    39   19   20 1
    40   19   22 1
    41   20   21 1
    42   22   46 1
    43   22   47 1
    44   23   24 2
    45   23   25 2
    46   23   26 1
    47   26   31 1
    48   26   27 1
    49   27   28 1
    50   27   48 1
    51   27   49 1
    52   28   29 1
    53   28   50 1
    54   28   51 1
    55   29   30 1
    56   29   52 1
    57   29   58 1
    58   30   31 1
    59   30   53 1
    60   30   54 1
    61   31   55 1
    62   31   56 1
@<TRIPOS>MOLECULE
CHEMBL56662__1
   57    61     0     0     0
SMALL
USER_CHARGES

@<TRIPOS>ATOM
      1 C1         -0.0151    1.3660    0.2302 C.ar      1 <0>        -0.1266
      2 C2          1.1690    2.0793    0.2233 C.ar      1 <0>        -0.0194
      3 C3          2.3662    1.4292   -0.0109 C.ar      1 <0>        -0.6683
      4 C4          2.3795    0.0657   -0.2378 C.ar      1 <0>        -0.0155
      5 C5          1.1955   -0.6478   -0.2301 C.ar      1 <0>        -0.1200
      6 C6         -0.0019    0.0025    0.0028 C.ar      1 <0>        -0.0603
      7 C7         -1.2926   -0.7753    0.0107 C.3       1 <0>         0.1523
      8 N1         -1.7874   -0.9143   -1.3612 N.pl3     1 <0>        -0.6083
      9 C8         -1.4906   -2.1221   -2.1432 C.3       1 <0>         0.1159
     10 C9         -1.0682   -1.6774   -3.5496 C.3       1 <0>        -0.1419
     11 C10        -2.2457   -0.9686   -4.2181 C.3       1 <0>        -0.0810
     12 C11        -2.7910    0.1115   -3.3201 C.ar      1 <0>        -0.1016
     13 C12        -2.5571    0.1009   -1.9479 C.ar      1 <0>         0.2689
     14 C13        -3.0770    1.0996   -1.1376 C.ar      1 <0>        -0.1857
     15 C14        -3.8382    2.1154   -1.6930 C.ar      1 <0>         0.1371
     16 C15        -4.0812    2.1308   -3.0760 C.ar      1 <0>         0.0025
     17 C16        -3.5425    1.1233   -3.8835 C.ar      1 <0>        -0.0362
     18 N2         -4.8446    3.2274   -3.3352 N.pl3     1 <0>        -0.5246
     19 C17        -5.0807    3.8720   -2.2208 C.cat     1 <0>         0.6466
     20 N3         -4.4819    3.2274   -1.1755 N.pl3     1 <0>        -0.5739
     21 H1         -4.5038    3.4979   -0.2443 H         1 <0>         0.4572
     22 N4         -5.8235    5.0305   -2.1172 N.pl3     1 <0>        -0.7988
     23 S1          3.8753    2.3387   -0.0208 S.o2      1 <0>         2.6863
     24 O1          4.7955    1.5901   -0.8032 O.2       1 <0>        -0.9494
     25 O2          3.5362    3.6849   -0.3240 O.2       1 <0>        -0.9533
     26 N5          4.4593    2.3352    1.5288 N.pl3     1 <0>        -0.9978
     27 C18         4.0824    3.3919    2.4799 C.3       1 <0>         0.1207
     28 C19         5.3602    3.9652    3.1020 C.3       1 <0>         0.0441
     29 N6          6.1567    2.8708    3.6729 N.3       1 <0>        -0.6889
     30 C20         6.5956    1.9319    2.6319 C.3       1 <0>         0.0442
     31 C21         5.3637    1.2720    1.9924 C.3       1 <0>         0.1197
     32 H2         -0.9500    1.8731    0.4176 H         1 <0>         0.1265
     33 H3          1.1586    3.1446    0.4006 H         1 <0>         0.1396
     34 H4          3.3148   -0.4421   -0.4215 H         1 <0>         0.1434
     35 H5          1.2058   -1.7130   -0.4081 H         1 <0>         0.1340
     36 H6         -1.1187   -1.7636    0.4362 H         1 <0>         0.1036
     37 H7         -2.0321   -0.2460    0.6117 H         1 <0>         0.0909
     38 H8         -0.6792   -2.6769   -1.6721 H         1 <0>         0.0916
     39 H9         -2.3799   -2.7492   -2.2058 H         1 <0>         0.0766
     40 H10        -0.2231   -0.9928   -3.4776 H         1 <0>         0.0760
     41 H11        -0.7848   -2.5496   -4.1387 H         1 <0>         0.0926
     42 H12        -1.9121   -0.5228   -5.1552 H         1 <0>         0.0896
     43 H13        -3.0317   -1.6947   -4.4256 H         1 <0>         0.0894
     44 H14        -2.8887    1.0851   -0.0743 H         1 <0>         0.1464
     45 H15        -3.7252    1.1293   -4.9479 H         1 <0>         0.1501
     46 H16        -6.2167    5.4271   -2.9102 H         1 <0>         0.4417
     47 H17        -5.9524    5.4481   -1.2512 H         1 <0>         0.4416
     48 H18         3.5443    4.1816    1.9556 H         1 <0>         0.0953
     49 H19         3.4507    2.9718    3.2626 H         1 <0>         0.0785
     50 H20         5.9413    4.4757    2.3340 H         1 <0>         0.0400
     51 H21         5.0963    4.6718    3.8888 H         1 <0>         0.0911
     52 H22         6.9442    3.2294    4.1919 H         1 <0>         0.3515
     53 H23         7.1595    2.4707    1.8704 H         1 <0>         0.0406
     54 H24         7.2277    1.1640    3.0778 H         1 <0>         0.0920
     55 H25         4.8528    0.6520    2.7291 H         1 <0>         0.0797
     56 H26         5.6730    0.6594    1.1455 H         1 <0>         0.0975
     57 H27        -5.1646    3.4912   -4.2121 H         1 <0>         0.4560
@<TRIPOS>BOND
     1    1    6 ar
     2    1    2 ar
     3    1   32 1
     4    2    3 ar
     5    2   33 1
     6    3    4 ar
     7    3   23 1
     8    4    5 ar
     9    4   34 1
    10    5    6 ar
    11    5   35 1
    12    6    7 1
    13    7    8 1
    14    7   36 1
    15    7   37 1
    16    8   13 1
    17    8    9 1
    18    9   10 1
    19    9   38 1
    20    9   39 1
    21   10   11 1
    22   10   40 1
    23   10   41 1
    24   11   12 1
    25   11   42 1
    26   11   43 1
    27   12   17 ar
    28   12   13 ar
    29   13   14 ar
    30   14   15 ar
    31   14   44 1
    32   15   20 1
    33   15   16 ar
    34   16   17 ar
    35   16   18 1
    36   17   45 1
    37   18   19 2
    38   18   57 1
    39   19   20 1
    40   19   22 1
    41   20   21 1
    42   22   46 1
    43   22   47 1
    44   23   24 2
    45   23   25 2
    46   23   26 1
    47   26   31 1
    48   26   27 1
    49   27   28 1
    50   27   48 1
    51   27   49 1
    52   28   29 1
    53   28   50 1
    54   28   51 1
    55   29   30 1
    56   29   52 1
    57   30   31 1
    58   30   53 1
    59   30   54 1
    60   31   55 1
    61   31   56 1
@<TRIPOS>MOLECULE
CHEMBL338598
   60    63     0     0     0
SMALL
USER_CHARGES

@<TRIPOS>ATOM
      1 C1         -3.0009   -0.8810   -1.3772 C.3       1 <0>        -0.1234
      2 C2         -2.3070    0.3696   -1.8521 C.ar      1 <0>        -0.0311
      3 C3         -1.6097    0.3513   -3.0394 C.ar      1 <0>        -0.1114
      4 C4         -0.9665    1.5088   -3.4814 C.ar      1 <0>         0.1573
      5 C5         -1.0419    2.6838   -2.7006 C.ar      1 <0>        -0.2017
      6 C6         -1.7525    2.6812   -1.5025 C.ar      1 <0>        -0.0172
      7 C7         -2.3834    1.5276   -1.0898 C.ar      1 <0>        -0.1301
      8 C8         -3.1585    1.5215    0.2025 C.3       1 <0>         0.1678
      9 N1         -3.0305    2.8269    0.8549 N.pl3     1 <0>        -0.6173
     10 C9         -3.9908    3.8923    0.5564 C.3       1 <0>         0.2279
     11 C10        -5.1223    3.8098    1.4943 C.1       1 <0>        -0.2088
     12 C11        -6.0248    3.7441    2.2423 C.1       1 <0>        -0.1846
     13 C12        -1.9976    3.0548    1.7575 C.ar      1 <0>         0.2495
     14 C13        -1.0184    2.0833    1.9523 C.ar      1 <0>        -0.2039
     15 C14        -0.0009    2.2994    2.8367 C.ar      1 <0>        -0.0089
     16 C15         0.0632    3.4995    3.5519 C.ar      1 <0>        -0.1983
     17 C16        -0.9193    4.4788    3.3584 C.ar      1 <0>         0.2019
     18 C17        -1.9417    4.2544    2.4590 C.ar      1 <0>        -0.2407
     19 F1         -0.8636    5.6405    4.0459 F         1 <0>        -0.1140
     20 C18         1.1611    3.7328    4.5069 C.2       1 <0>         0.5602
     21 O1          1.2151    4.7769    5.1280 O.2       1 <0>        -0.5431
     22 N2          2.1052    2.7889    4.6920 N.am      1 <0>        -0.6823
     23 C19         3.1966    3.0208    5.6414 C.3       1 <0>         0.0970
     24 H1          3.4721    4.0753    5.6277 H         1 <0>         0.0923
     25 C20         4.4065    2.1724    5.2447 C.3       1 <0>        -0.0766
     26 S1          5.0389    2.7341    3.6400 S.3       1 <0>        -0.0582
     27 C21         6.4107    1.6734    3.3275 C.2       1 <0>         0.0576
     28 N3          7.2079    1.6946    2.2593 N.2       1 <0>        -0.3657
     29 N4          8.0854    0.7626    2.4120 N.2       1 <0>        -0.1999
     30 N5          7.8728    0.1587    3.5285 N.2       1 <0>        -0.1959
     31 N6          6.8585    0.6959    4.1156 N.2       1 <0>        -0.3762
     32 C22         2.7467    2.6371    7.0275 C.2       1 <0>         0.5039
     33 O2          1.6937    2.0428    7.1840 O.co2     1 <0>        -0.6845
     34 O3          3.4357    2.9210    7.9925 O.co2     1 <0>        -0.6918
     35 C23        -0.3530    3.8856   -3.1940 C.2       1 <0>         0.5493
     36 N7          0.3105    3.7850   -4.3693 N.am      1 <0>        -0.6543
     37 C24         0.3296    2.6121   -5.0548 C.2       1 <0>         0.3946
     38 N8         -0.2684    1.5353   -4.6443 N.2       1 <0>        -0.5231
     39 C25         1.0839    2.5582   -6.3583 C.3       1 <0>        -0.1106
     40 O4         -0.3789    4.9304   -2.5699 O.2       1 <0>        -0.5034
     41 H2         -4.0506   -0.8471   -1.6690 H         1 <0>         0.0771
     42 H3         -2.5266   -1.7530   -1.8274 H         1 <0>         0.0732
     43 H4         -2.9275   -0.9474   -0.2917 H         1 <0>         0.0759
     44 H5         -1.5604   -0.5544   -3.6257 H         1 <0>         0.1388
     45 H6         -1.8119    3.5778   -0.9034 H         1 <0>         0.1423
     46 H7         -4.2095    1.3205   -0.0051 H         1 <0>         0.0915
     47 H8         -2.7633    0.7467    0.8595 H         1 <0>         0.0986
     48 H9         -3.5025    4.8612    0.6605 H         1 <0>         0.1036
     49 H10        -4.3557    3.7770   -0.4642 H         1 <0>         0.0990
     50 H11        -6.8320    3.6853    2.9112 H         1 <0>         0.2156
     51 H12        -1.0645    1.1553    1.4018 H         1 <0>         0.1303
     52 H13         0.7552    1.5425    2.9843 H         1 <0>         0.1381
     53 H14        -2.6996    5.0078    2.3029 H         1 <0>         0.1354
     54 H15         2.0620    1.9561    4.1966 H         1 <0>         0.3919
     55 H16         5.1862    2.2765    5.9992 H         1 <0>         0.1010
     56 H17         4.1086    1.1264    5.1720 H         1 <0>         0.0812
     57 H18         2.1163    2.2645   -6.1687 H         1 <0>         0.0997
     58 H19         0.6146    1.8299   -7.0198 H         1 <0>         0.1020
     59 H20         1.0664    3.5410   -6.8292 H         1 <0>         0.0847
     60 H21         0.7766    4.5574   -4.7257 H         1 <0>         0.4178
@<TRIPOS>BOND
     1    1   41 1
     2    1   42 1
     3    1   43 1
     4    1    2 1
     5    2    7 ar
     6    2    3 ar
     7    3   44 1
     8    3    4 ar
     9    4    5 ar
    10    4   38 1
    11    5   35 1
    12    5    6 ar
    13    6   45 1
    14    6    7 ar
    15    7    8 1
    16    8    9 1
    17    8   46 1
    18    8   47 1
    19    9   10 1
    20    9   13 1
    21   10   11 1
    22   10   48 1
    23   10   49 1
    24   11   12 3
    25   12   50 1
    26   13   18 ar
    27   13   14 ar
    28   14   15 ar
    29   14   51 1
    30   15   16 ar
    31   15   52 1
    32   16   17 ar
    33   16   20 1
    34   17   18 ar
    35   17   19 1
    36   18   53 1
    37   20   21 2
    38   20   22 am
    39   22   23 1
    40   22   54 1
    41   23   24 1
    42   23   25 1
    43   23   32 1
    44   25   26 1
    45   25   55 1
    46   25   56 1
    47   26   27 1
    48   27   28 2
    49   27   31 1
    50   28   29 1
    51   29   30 2
    52   30   31 1
    53   32   33 2
    54   32   34 1
    55   35   40 2
    56   35   36 am
    57   36   37 1
    58   36   60 1
    59   37   38 2
    60   37   39 1
    61   39   57 1
    62   39   58 1
    63   39   59 1
@<TRIPOS>MOLECULE
CHEMBL138500
   31    33     0     0     0
SMALL
USER_CHARGES

@<TRIPOS>ATOM
      1 C1         -0.0109    1.4768   -0.0309 C.3       1 <0>        -0.0887
      2 C2          0.0007   -0.0301   -0.0184 C.2       1 <0>         0.2714
      3 C3         -1.2037   -0.8717    0.1068 C.2       1 <0>        -0.6221
      4 C4         -0.7618   -2.2157   -0.4857 C.3       1 <0>        -0.0742
      5 C5          0.7319   -2.1823   -0.0768 C.3       1 <0>         0.3054
      6 N1          1.0687   -0.7542   -0.1218 N.2       1 <0>        -0.6456
      7 N2          1.5222   -2.9401   -1.0407 N.pl3     1 <0>        -0.7367
      8 C6          1.3004   -2.7838   -2.3765 C.2       1 <0>         0.6994
      9 N3          0.1128   -2.3900   -2.8053 N.2       1 <0>        -0.6990
     10 C7         -0.8807   -2.1096   -1.9813 C.2       1 <0>         0.5310
     11 O1         -1.9410   -1.7494   -2.4539 O.2       1 <0>        -0.5150
     12 N4          2.3001   -3.0324   -3.2681 N.pl3     1 <0>        -0.8284
     13 S1         -2.6837   -0.4622    0.7374 S.3       1 <0>         0.1315
     14 C8         -2.5052   -0.7517    2.4662 C.ar      1 <0>        -0.1069
     15 C9         -1.2668   -1.1052    3.0115 C.ar      1 <0>        -0.1772
     16 C10        -1.1717   -1.3228    4.3705 C.ar      1 <0>         0.0909
     17 N5         -2.2282   -1.2018    5.1514 N.ar      1 <0>        -0.5272
     18 C11        -3.4141   -0.8703    4.6777 C.ar      1 <0>         0.0922
     19 C12        -3.5969   -0.6286    3.3318 C.ar      1 <0>        -0.1846
     20 H1          1.0138    1.8479   -0.0515 H         1 <0>         0.0527
     21 H2         -0.5425    1.8287   -0.9150 H         1 <0>         0.0687
     22 H3         -0.5123    1.8437    0.8646 H         1 <0>         0.0669
     23 H4         -1.3098   -3.0652   -0.0780 H         1 <0>         0.0748
     24 H5          0.8603   -2.5761    0.9315 H         1 <0>         0.0834
     25 H6          3.1707   -3.3208   -2.9525 H         1 <0>         0.4041
     26 H7          2.2057   -3.5548   -0.7311 H         1 <0>         0.3908
     27 H8         -0.3980   -1.2067    2.3781 H         1 <0>         0.1296
     28 H9         -0.2196   -1.5962    4.8009 H         1 <0>         0.1350
     29 H10        -4.2521   -0.7825    5.3533 H         1 <0>         0.1386
     30 H11        -4.5695   -0.3531    2.9516 H         1 <0>         0.1214
     31 H12         2.1411   -2.9208   -4.2184 H         1 <0>         0.4179
@<TRIPOS>BOND
     1    1    2 1
     2    1   20 1
     3    1   21 1
     4    1   22 1
     5    2    6 2
     6    2    3 1
     7    3   13 1
     8    3    4 1
     9    4   10 1
    10    4    5 1
    11    4   23 1
    12    5    6 1
    13    5   24 1
    14    5    7 1
    15    7   26 1
    16    7    8 1
    17    8   12 1
    18    8    9 2
    19    9   10 1
    20   10   11 2
    21   12   25 1
    22   12   31 1
    23   13   14 1
    24   14   19 ar
    25   14   15 ar
    26   15   16 ar
    27   15   27 1
    28   16   17 ar
    29   16   28 1
    30   17   18 ar
    31   18   19 ar
    32   18   29 1
    33   19   30 1
@<TRIPOS>MOLECULE
CHEMBL138500__1
   31    33     0     0     0
SMALL
NO_CHARGES

@<TRIPOS>ATOM
      1 C1         -0.1312    1.4861    0.0661 C.3       1 <0>        -0.1074
      2 C2         -0.0477   -0.0181    0.0295 C.2       1 <0>         0.2064
      3 C3          0.1440   -0.9029    1.2494 C.3       1 <0>        -0.1021
      4 C4          0.7080   -2.2023    0.6241 C.3       1 <0>        -0.1987
      5 C5         -0.0206   -2.1701   -0.7423 C.3       1 <0>         0.2949
      6 N1         -0.1339   -0.7247   -1.0302 N.2       1 <0>        -0.4930
      7 N2         -1.3862   -2.6807   -0.5601 N.pl3     1 <0>        -0.7221
      8 C6         -1.6119   -3.7863    0.1983 C.2       1 <0>         0.5596
      9 N3         -0.7821   -4.1055    1.1777 N.2       1 <0>        -0.5162
     10 C7          0.3093   -3.3981    1.4219 C.2       1 <0>         0.4879
     11 O1          1.0243   -3.7409    2.3430 O.2       1 <0>        -0.4098
     12 N4         -2.6980   -4.5696   -0.0520 N.2       1 <0>        -0.4576
     13 S1          1.3387   -0.1678    2.3995 S.3       1 <0>        -0.0201
     14 C8          2.8015    0.0162    1.4347 C.ar      1 <0>        -0.0533
     15 C9          2.7951   -0.2546    0.0657 C.ar      1 <0>        -0.2086
     16 C10         3.9609   -0.0977   -0.6534 C.ar      1 <0>         0.1257
     17 N5          5.0719    0.3021   -0.0630 N.ar      1 <0>        -0.4851
     18 C11         5.1189    0.5682    1.2292 C.ar      1 <0>         0.1227
     19 C12         3.9954    0.4420    2.0183 C.ar      1 <0>        -0.1489
     20 H1          0.8743    1.9064    0.0452 H         1 <0>         0.0966
     21 H2         -0.8081   -1.0921    1.7452 H         1 <0>         0.1486
     22 H3         -0.6910    1.8401   -0.7995 H         1 <0>         0.0953
     23 H4          1.7908   -2.1494    0.5103 H         1 <0>         0.1421
     24 H5          0.5229   -2.7160   -1.5134 H         1 <0>         0.1349
     25 H6         -0.6372    1.7999    0.9792 H         1 <0>         0.0959
     26 H7         -2.8614   -5.3590    0.4875 H         1 <0>         0.3805
     27 H8          1.8899   -0.5827   -0.4234 H         1 <0>         0.1398
     28 H9          3.9653   -0.3049   -1.7133 H         1 <0>         0.1601
     29 H10         6.0484    0.8925    1.6732 H         1 <0>         0.1652
     30 H11         4.0398    0.6654    3.0740 H         1 <0>         0.1439
     31 H12        -2.1312   -2.2263   -0.9836 H         1 <0>         0.4228
@<TRIPOS>BOND
     1    1    2 1
     2    1   20 1
     3    1   22 1
     4    1   25 1
     5    2    3 1
     6    2    6 2
     7    3    4 1
     8    3   13 1
     9    3   21 1
    10    4   10 1
    11    4    5 1
    12    4   23 1
    13    5    7 1
    14    5   24 1
    15    5    6 1
    16    7    8 1
    17    7   31 1
    18    8    9 2
    19    8   12 1
    20    9   10 1
    21   10   11 2
    22   12   26 1
    23   13   14 1
    24   14   19 ar
    25   14   15 ar
    26   15   16 ar
    27   15   27 1
    28   16   17 ar
    29   16   28 1
    30   17   18 ar
    31   18   19 ar
    32   18   29 1
    33   19   30 1
@<TRIPOS>MOLECULE
CHEMBL138500__2
   32    34     0     0     0
SMALL
NO_CHARGES

@<TRIPOS>ATOM
      1 C1         -0.1312    1.4861    0.0661 C.3       1 <0>        -0.1073
      2 C2         -0.0477   -0.0181    0.0295 C.2       1 <0>         0.2054
      3 C3          0.1440   -0.9029    1.2494 C.3       1 <0>        -0.0984
      4 C4          0.7080   -2.2023    0.6241 C.3       1 <0>        -0.2017
      5 C5         -0.0206   -2.1701   -0.7423 C.3       1 <0>         0.2975
      6 N1         -0.1339   -0.7247   -1.0302 N.2       1 <0>        -0.4999
      7 N2         -1.3862   -2.6807   -0.5601 N.pl3     1 <0>        -0.7537
      8 C6         -1.6119   -3.7863    0.1983 C.2       1 <0>         0.7003
      9 N3         -0.7821   -4.1055    1.1777 N.2       1 <0>        -0.6691
     10 C7          0.3093   -3.3981    1.4219 C.2       1 <0>         0.5288
     11 O1          1.0243   -3.7409    2.3430 O.2       1 <0>        -0.4808
     12 N4         -2.6980   -4.5696   -0.0520 N.pl3     1 <0>        -0.8070
     13 S1          1.3387   -0.1678    2.3995 S.3       1 <0>        -0.0244
     14 C8          2.8015    0.0162    1.4347 C.ar      1 <0>        -0.0506
     15 C9          2.7951   -0.2546    0.0657 C.ar      1 <0>        -0.2080
     16 C10         3.9609   -0.0977   -0.6534 C.ar      1 <0>         0.1243
     17 N5          5.0719    0.3021   -0.0630 N.ar      1 <0>        -0.4867
     18 C11         5.1189    0.5682    1.2292 C.ar      1 <0>         0.1217
     19 C12         3.9954    0.4420    2.0183 C.ar      1 <0>        -0.1500
     20 H1          0.8743    1.9064    0.0452 H         1 <0>         0.0960
     21 H2         -0.8081   -1.0921    1.7452 H         1 <0>         0.1468
     22 H3         -0.6910    1.8401   -0.7995 H         1 <0>         0.0932
     23 H4          1.7908   -2.1494    0.5103 H         1 <0>         0.1345
     24 H5          0.5229   -2.7160   -1.5134 H         1 <0>         0.1309
     25 H6         -0.6372    1.7999    0.9792 H         1 <0>         0.0950
     26 H7         -3.3080   -4.3379   -0.7698 H         1 <0>         0.4146
     27 H8         -2.8614   -5.3590    0.4875 H         1 <0>         0.4304
     28 H9          1.8899   -0.5827   -0.4234 H         1 <0>         0.1399
     29 H10         3.9653   -0.3049   -1.7133 H         1 <0>         0.1589
     30 H11         6.0484    0.8925    1.6732 H         1 <0>         0.1644
     31 H12         4.0398    0.6654    3.0740 H         1 <0>         0.1433
     32 H13        -2.1312   -2.2263   -0.9836 H         1 <0>         0.4120
@<TRIPOS>BOND
     1    1    2 1
     2    1   20 1
     3    1   22 1
     4    1   25 1
     5    2    3 1
     6    2    6 2
     7    3    4 1
     8    3   13 1
     9    3   21 1
    10    4   10 1
    11    4    5 1
    12    4   23 1
    13    5    7 1
    14    5   24 1
    15    5    6 1
    16    7    8 1
    17    7   32 1
    18    8    9 2
    19    8   12 1
    20    9   10 1
    21   10   11 2
    22   12   26 1
    23   12   27 1
    24   13   14 1
    25   14   19 ar
    26   14   15 ar
    27   15   16 ar
    28   15   28 1
    29   16   17 ar
    30   16   29 1
    31   17   18 ar
    32   18   19 ar
    33   18   30 1
    34   19   31 1
@<TRIPOS>MOLECULE
CHEMBL138500__3
   31    33     0     0     0
SMALL
USER_CHARGES

@<TRIPOS>ATOM
      1 C1          0.0411    1.4415   -0.4692 C.3       1 <0>        -0.0880
      2 C2          0.0257   -0.0434   -0.2122 C.2       1 <0>         0.2636
      3 C3         -1.1963   -0.8393    0.0960 C.2       1 <0>        -0.6145
      4 C4         -0.6120   -1.9836    0.8848 C.3       1 <0>        -0.0842
      5 C5          0.6753   -2.1720    0.0190 C.3       1 <0>         0.3107
      6 N1          1.0869   -0.8180   -0.2342 N.2       1 <0>        -0.6304
      7 N2          1.4782   -3.1480    0.7159 N.pl3     1 <0>        -0.7377
      8 C6          0.8107   -4.3417    0.9418 C.2       1 <0>         0.6954
      9 N3         -0.5137   -4.3924    0.9312 N.2       1 <0>        -0.7067
     10 C7         -1.3003   -3.3063    0.8530 C.2       1 <0>         0.5329
     11 O1         -2.5089   -3.3967    0.7616 O.2       1 <0>        -0.4847
     12 N4          1.5252   -5.4775    1.1772 N.pl3     1 <0>        -0.8255
     13 S1         -2.7767   -0.5443   -0.3174 S.3       1 <0>         0.1364
     14 C8         -3.4376    0.2855    1.0895 C.ar      1 <0>        -0.0962
     15 C9         -2.6221    0.6192    2.1756 C.ar      1 <0>        -0.1774
     16 C10        -3.1807    1.2686    3.2570 C.ar      1 <0>         0.0913
     17 N5         -4.4641    1.5738    3.2749 N.ar      1 <0>        -0.5285
     18 C11        -5.2678    1.2772    2.2715 C.ar      1 <0>         0.0934
     19 C12        -4.7908    0.6336    1.1483 C.ar      1 <0>        -0.1868
     20 H1          1.0699    1.7769   -0.6001 H         1 <0>         0.0567
     21 H2         -0.5299    1.6600   -1.3715 H         1 <0>         0.0712
     22 H3         -0.4056    1.9615    0.3783 H         1 <0>         0.0675
     23 H4         -0.3852   -1.6831    1.9077 H         1 <0>         0.0515
     24 H5          0.3723   -2.6136   -0.9304 H         1 <0>         0.0470
     25 H6          2.4947   -5.4475    1.1860 H         1 <0>         0.4055
     26 H7          2.3921   -2.9854    0.9971 H         1 <0>         0.3964
     27 H8         -1.5708    0.3718    2.1680 H         1 <0>         0.1269
     28 H9         -2.5591    1.5305    4.1004 H         1 <0>         0.1349
     29 H10        -6.3124    1.5458    2.3283 H         1 <0>         0.1382
     30 H11        -5.4535    0.3980    0.3287 H         1 <0>         0.1205
     31 H12         1.0645   -6.3162    1.3360 H         1 <0>         0.4206
@<TRIPOS>BOND
     1    1    2 1
     2    1   20 1
     3    1   21 1
     4    1   22 1
     5    2    6 2
     6    2    3 1
     7    3   13 1
     8    3    4 1
     9    4   10 1
    10    4    5 1
    11    4   23 1
    12    5    6 1
    13    5   24 1
    14    5    7 1
    15    7   26 1
    16    7    8 1
    17    8   12 1
    18    8    9 2
    19    9   10 1
    20   10   11 2
    21   12   25 1
    22   12   31 1
    23   13   14 1
    24   14   19 ar
    25   14   15 ar
    26   15   16 ar
    27   15   27 1
    28   16   17 ar
    29   16   28 1
    30   17   18 ar
    31   18   19 ar
    32   18   29 1
    33   19   30 1
@<TRIPOS>MOLECULE
CHEMBL138500__4
   31    33     0     0     0
SMALL
NO_CHARGES

@<TRIPOS>ATOM
      1 C1         -0.0345    1.5159    0.0276 C.3       1 <0>        -0.1050
      2 C2         -0.0079    0.0093    0.0079 C.2       1 <0>         0.1886
      3 C3          0.1337   -0.8828    1.2456 C.3       1 <0>        -0.0918
      4 C4          0.7499   -2.1411    0.6200 C.3       1 <0>        -0.2206
      5 C5         -0.0838   -2.1101   -0.7002 C.3       1 <0>         0.2854
      6 N1         -0.1073   -0.7228   -1.0597 N.2       1 <0>        -0.4742
      7 N2          0.4271   -3.1729   -1.5274 N.pl3     1 <0>        -0.6960
      8 C6          0.3919   -4.4127   -0.9075 C.2       1 <0>         0.5683
      9 N3          0.3269   -4.5084    0.4127 N.2       1 <0>        -0.5320
     10 C7          0.4359   -3.4605    1.2448 C.2       1 <0>         0.5057
     11 O1          0.2863   -3.5795    2.4451 O.2       1 <0>        -0.4037
     12 N4          0.4241   -5.5452   -1.6641 N.2       1 <0>        -0.4501
     13 S1          1.2544   -0.1405    2.4636 S.3       1 <0>        -0.0166
     14 C8          2.7434    0.1326    1.5619 C.ar      1 <0>        -0.0549
     15 C9          2.8058   -0.1162    0.1902 C.ar      1 <0>        -0.2105
     16 C10         3.9898    0.1108   -0.4784 C.ar      1 <0>         0.1249
     17 N5          5.0544    0.5568    0.1624 N.ar      1 <0>        -0.4860
     18 C11         5.0359    0.8042    1.4590 C.ar      1 <0>         0.1224
     19 C12         3.8896    0.6088    2.1997 C.ar      1 <0>        -0.1503
     20 H1          0.9865    1.8974    0.0187 H         1 <0>         0.0962
     21 H2         -0.8385   -1.0990    1.6884 H         1 <0>         0.1580
     22 H3         -0.5666    1.8814   -0.8506 H         1 <0>         0.0950
     23 H4          1.8195   -2.0236    0.4460 H         1 <0>         0.1408
     24 H5         -1.1044   -2.3762   -0.4249 H         1 <0>         0.0894
     25 H6         -0.5426    1.8586    0.9290 H         1 <0>         0.0983
     26 H7          0.3998   -6.4153   -1.2361 H         1 <0>         0.3829
     27 H8          1.9388   -0.4818   -0.3400 H         1 <0>         0.1410
     28 H9          4.0474   -0.0789   -1.5401 H         1 <0>         0.1584
     29 H10         5.9291    1.1680    1.9451 H         1 <0>         0.1650
     30 H11         3.8801    0.8172    3.2594 H         1 <0>         0.1443
     31 H12         0.7617   -3.0352   -2.4273 H         1 <0>         0.4272
@<TRIPOS>BOND
     1    1    2 1
     2    1   20 1
     3    1   22 1
     4    1   25 1
     5    2    3 1
     6    2    6 2
     7    3    4 1
     8    3   13 1
     9    3   21 1
    10    4   10 1
    11    4    5 1
    12    4   23 1
    13    5    7 1
    14    5   24 1
    15    5    6 1
    16    7    8 1
    17    7   31 1
    18    8    9 2
    19    8   12 1
    20    9   10 1
    21   10   11 2
    22   12   26 1
    23   13   14 1
    24   14   19 ar
    25   14   15 ar
    26   15   16 ar
    27   15   27 1
    28   16   17 ar
    29   16   28 1
    30   17   18 ar
    31   18   19 ar
    32   18   29 1
    33   19   30 1
@<TRIPOS>MOLECULE
CHEMBL138500__5
   32    34     0     0     0
SMALL
NO_CHARGES

@<TRIPOS>ATOM
      1 C1         -0.0345    1.5159    0.0276 C.3       1 <0>        -0.1045
      2 C2         -0.0079    0.0093    0.0079 C.2       1 <0>         0.1867
      3 C3          0.1337   -0.8828    1.2456 C.3       1 <0>        -0.0906
      4 C4          0.7499   -2.1411    0.6200 C.3       1 <0>        -0.2209
      5 C5         -0.0838   -2.1101   -0.7002 C.3       1 <0>         0.2872
      6 N1         -0.1073   -0.7228   -1.0597 N.2       1 <0>        -0.4805
      7 N2          0.4271   -3.1729   -1.5274 N.pl3     1 <0>        -0.7335
      8 C6          0.3919   -4.4127   -0.9075 C.2       1 <0>         0.7106
      9 N3          0.3269   -4.5084    0.4127 N.2       1 <0>        -0.6838
     10 C7          0.4359   -3.4605    1.2448 C.2       1 <0>         0.5460
     11 O1          0.2863   -3.5795    2.4451 O.2       1 <0>        -0.4693
     12 N4          0.4241   -5.5452   -1.6641 N.pl3     1 <0>        -0.8031
     13 S1          1.2544   -0.1405    2.4636 S.3       1 <0>        -0.0195
     14 C8          2.7434    0.1326    1.5619 C.ar      1 <0>        -0.0524
     15 C9          2.8058   -0.1162    0.1902 C.ar      1 <0>        -0.2098
     16 C10         3.9898    0.1108   -0.4784 C.ar      1 <0>         0.1230
     17 N5          5.0544    0.5568    0.1624 N.ar      1 <0>        -0.4878
     18 C11         5.0359    0.8042    1.4590 C.ar      1 <0>         0.1213
     19 C12         3.8896    0.6088    2.1997 C.ar      1 <0>        -0.1511
     20 H1          0.9865    1.8974    0.0187 H         1 <0>         0.0951
     21 H2         -0.8385   -1.0990    1.6884 H         1 <0>         0.1559
     22 H3         -0.5666    1.8814   -0.8506 H         1 <0>         0.0931
     23 H4          1.8195   -2.0236    0.4460 H         1 <0>         0.1333
     24 H5         -1.1044   -2.3762   -0.4249 H         1 <0>         0.0870
     25 H6         -0.5426    1.8586    0.9290 H         1 <0>         0.0974
     26 H7          0.4714   -5.4814   -2.6309 H         1 <0>         0.4161
     27 H8          0.3998   -6.4153   -1.2361 H         1 <0>         0.4320
     28 H9          1.9388   -0.4818   -0.3400 H         1 <0>         0.1416
     29 H10         4.0474   -0.0789   -1.5401 H         1 <0>         0.1566
     30 H11         5.9291    1.1680    1.9451 H         1 <0>         0.1642
     31 H12         3.8801    0.8172    3.2594 H         1 <0>         0.1438
     32 H13         0.7617   -3.0352   -2.4273 H         1 <0>         0.4159
@<TRIPOS>BOND
     1    1    2 1
     2    1   20 1
     3    1   22 1
     4    1   25 1
     5    2    3 1
     6    2    6 2
     7    3    4 1
     8    3   13 1
     9    3   21 1
    10    4   10 1
    11    4    5 1
    12    4   23 1
    13    5    7 1
    14    5   24 1
    15    5    6 1
    16    7    8 1
    17    7   32 1
    18    8    9 2
    19    8   12 1
    20    9   10 1
    21   10   11 2
    22   12   26 1
    23   12   27 1
    24   13   14 1
    25   14   19 ar
    26   14   15 ar
    27   15   16 ar
    28   15   28 1
    29   16   17 ar
    30   16   29 1
    31   17   18 ar
    32   18   19 ar
    33   18   30 1
    34   19   31 1
@<TRIPOS>MOLECULE
CHEMBL138500__6
   31    33     0     0     0
SMALL
USER_CHARGES

@<TRIPOS>ATOM
      1 C1         -0.1114    1.5467   -0.1590 C.3       1 <0>        -0.0881
      2 C2         -0.0312    0.0445   -0.0690 C.2       1 <0>         0.2649
      3 C3         -1.2027   -0.8592    0.1120 C.2       1 <0>        -0.6148
      4 C4         -0.6956   -2.1302   -0.5210 C.3       1 <0>        -0.0848
      5 C5          0.7655   -2.0442    0.0269 C.3       1 <0>         0.3111
      6 N1          1.0806   -0.6518   -0.1448 N.2       1 <0>        -0.6307
      7 N2          1.4877   -3.1195   -0.6095 N.pl3     1 <0>        -0.7379
      8 C6          0.9130   -4.3629   -0.3969 C.2       1 <0>         0.6954
      9 N3         -0.3631   -4.4725   -0.0555 N.2       1 <0>        -0.7068
     10 C7         -1.2194   -3.4378   -0.0314 C.2       1 <0>         0.5328
     11 O1         -2.3607   -3.5609    0.3680 O.2       1 <0>        -0.4850
     12 N4          1.6693   -5.4868   -0.5410 N.pl3     1 <0>        -0.8254
     13 S1         -2.6716   -0.5495    0.8204 S.3       1 <0>         0.1376
     14 C8         -3.6750    0.0210   -0.5108 C.ar      1 <0>        -0.0981
     15 C9         -3.1992    0.0084   -1.8259 C.ar      1 <0>        -0.1758
     16 C10        -4.0182    0.4643   -2.8382 C.ar      1 <0>         0.0913
     17 N5         -5.2334    0.9076   -2.5784 N.ar      1 <0>        -0.5284
     18 C11        -5.7205    0.9365   -1.3527 C.ar      1 <0>         0.0934
     19 C12        -4.9713    0.4935   -0.2822 C.ar      1 <0>        -0.1878
     20 H1          0.8951    1.9618   -0.2106 H         1 <0>         0.0567
     21 H2         -0.6668    1.8279   -1.0537 H         1 <0>         0.0671
     22 H3         -0.6205    1.9367    0.7223 H         1 <0>         0.0715
     23 H4         -0.7360   -2.0730   -1.6088 H         1 <0>         0.0516
     24 H5          0.7302   -2.2594    1.0949 H         1 <0>         0.0477
     25 H6          2.6037   -5.4138   -0.7910 H         1 <0>         0.4056
     26 H7          2.2930   -2.9857   -1.1333 H         1 <0>         0.3966
     27 H8         -2.2052   -0.3524   -2.0457 H         1 <0>         0.1263
     28 H9         -3.6597    0.4585   -3.8569 H         1 <0>         0.1349
     29 H10        -6.7208    1.3076   -1.1856 H         1 <0>         0.1382
     30 H11        -5.3781    0.5157    0.7180 H         1 <0>         0.1205
     31 H12         1.2735   -6.3600   -0.3937 H         1 <0>         0.4206
@<TRIPOS>BOND
     1    1    2 1
     2    1   20 1
     3    1   21 1
     4    1   22 1
     5    2    6 2
     6    2    3 1
     7    3   13 1
     8    3    4 1
     9    4   10 1
    10    4    5 1
    11    4   23 1
    12    5    6 1
    13    5   24 1
    14    5    7 1
    15    7   26 1
    16    7    8 1
    17    8   12 1
    18    8    9 2
    19    9   10 1
    20   10   11 2
    21   12   25 1
    22   12   31 1
    23   13   14 1
    24   14   19 ar
    25   14   15 ar
    26   15   16 ar
    27   15   27 1
    28   16   17 ar
    29   16   28 1
    30   17   18 ar
    31   18   19 ar
    32   18   29 1
    33   19   30 1
@<TRIPOS>MOLECULE
CHEMBL138500__7
   31    33     0     0     0
SMALL
NO_CHARGES

@<TRIPOS>ATOM
      1 C1          0.1125    1.4123   -0.2590 C.3       1 <0>        -0.1046
      2 C2          0.0838   -0.0899   -0.1417 C.2       1 <0>         0.1850
      3 C3          0.1568   -0.8695    1.1753 C.3       1 <0>        -0.0968
      4 C4         -0.5568   -2.1681    0.7769 C.3       1 <0>        -0.1907
      5 C5          0.0384   -2.2634   -0.6639 C.3       1 <0>         0.2812
      6 N1         -0.0121   -0.9127   -1.1415 N.2       1 <0>        -0.4642
      7 N2         -0.6062   -3.3863   -1.2952 N.pl3     1 <0>        -0.6983
      8 C6         -0.4646   -4.5682   -0.5842 C.2       1 <0>         0.5680
      9 N3         -0.1747   -4.5503    0.7089 N.2       1 <0>        -0.5292
     10 C7         -0.1396   -3.4329    1.4521 C.2       1 <0>         0.4962
     11 O1          0.2140   -3.4498    2.6149 O.2       1 <0>        -0.3914
     12 N4         -0.6259   -5.7612   -1.2218 N.2       1 <0>        -0.4564
     13 S1          1.8774   -1.1876    1.6539 S.3       1 <0>        -0.0302
     14 C8          2.4585    0.3766    2.2199 C.ar      1 <0>        -0.0508
     15 C9          1.5836    1.4529    2.3728 C.ar      1 <0>        -0.1894
     16 C10         2.0784    2.6600    2.8187 C.ar      1 <0>         0.1220
     17 N5          3.3604    2.8041    3.0990 N.ar      1 <0>        -0.4861
     18 C11         4.2197    1.8106    2.9675 C.ar      1 <0>         0.1218
     19 C12         3.8047    0.5699    2.5327 C.ar      1 <0>        -0.1512
     20 H1          1.1469    1.7554   -0.2798 H         1 <0>         0.0951
     21 H2         -0.3814   -0.3521    1.9694 H         1 <0>         0.1316
     22 H3         -0.3891    1.7146   -1.1783 H         1 <0>         0.0966
     23 H4         -1.6404   -2.0506    0.7785 H         1 <0>         0.1439
     24 H5          1.0912   -2.5195   -0.5447 H         1 <0>         0.0928
     25 H6         -0.3995    1.8533    0.5962 H         1 <0>         0.0913
     26 H7         -0.5281   -6.5913   -0.7297 H         1 <0>         0.3819
     27 H8          0.5339    1.3420    2.1446 H         1 <0>         0.1375
     28 H9          1.4087    3.4985    2.9400 H         1 <0>         0.1620
     29 H10         5.2605    1.9708    3.2073 H         1 <0>         0.1642
     30 H11         4.5122   -0.2398    2.4314 H         1 <0>         0.1412
     31 H12        -1.0904   -3.3220   -2.1332 H         1 <0>         0.4268
@<TRIPOS>BOND
     1    1    2 1
     2    1   20 1
     3    1   22 1
     4    1   25 1
     5    2    3 1
     6    2    6 2
     7    3    4 1
     8    3   13 1
     9    3   21 1
    10    4   10 1
    11    4    5 1
    12    4   23 1
    13    5    7 1
    14    5   24 1
    15    5    6 1
    16    7    8 1
    17    7   31 1
    18    8    9 2
    19    8   12 1
    20    9   10 1
    21   10   11 2
    22   12   26 1
    23   13   14 1
    24   14   19 ar
    25   14   15 ar
    26   15   16 ar
    27   15   27 1
    28   16   17 ar
    29   16   28 1
    30   17   18 ar
    31   18   19 ar
    32   18   29 1
    33   19   30 1
@<TRIPOS>MOLECULE
CHEMBL138500__8
   32    34     0     0     0
SMALL
NO_CHARGES

@<TRIPOS>ATOM
      1 C1          0.1125    1.4123   -0.2590 C.3       1 <0>        -0.1041
      2 C2          0.0838   -0.0899   -0.1417 C.2       1 <0>         0.1837
      3 C3          0.1568   -0.8695    1.1753 C.3       1 <0>        -0.0961
      4 C4         -0.5568   -2.1681    0.7769 C.3       1 <0>        -0.1934
      5 C5          0.0384   -2.2634   -0.6639 C.3       1 <0>         0.2829
      6 N1         -0.0121   -0.9127   -1.1415 N.2       1 <0>        -0.4715
      7 N2         -0.6062   -3.3863   -1.2952 N.pl3     1 <0>        -0.7337
      8 C6         -0.4646   -4.5682   -0.5842 C.2       1 <0>         0.7095
      9 N3         -0.1747   -4.5503    0.7089 N.2       1 <0>        -0.6827
     10 C7         -0.1396   -3.4329    1.4521 C.2       1 <0>         0.5385
     11 O1          0.2140   -3.4498    2.6149 O.2       1 <0>        -0.4591
     12 N4         -0.6259   -5.7612   -1.2218 N.pl3     1 <0>        -0.8039
     13 S1          1.8774   -1.1876    1.6539 S.3       1 <0>        -0.0256
     14 C8          2.4585    0.3766    2.2199 C.ar      1 <0>        -0.0514
     15 C9          1.5836    1.4529    2.3728 C.ar      1 <0>        -0.1909
     16 C10         2.0784    2.6600    2.8187 C.ar      1 <0>         0.1212
     17 N5          3.3604    2.8041    3.0990 N.ar      1 <0>        -0.4886
     18 C11         4.2197    1.8106    2.9675 C.ar      1 <0>         0.1209
     19 C12         3.8047    0.5699    2.5327 C.ar      1 <0>        -0.1530
     20 H1          1.1469    1.7554   -0.2798 H         1 <0>         0.0941
     21 H2         -0.3814   -0.3521    1.9694 H         1 <0>         0.1276
     22 H3         -0.3891    1.7146   -1.1783 H         1 <0>         0.0945
     23 H4         -1.6404   -2.0506    0.7785 H         1 <0>         0.1350
     24 H5          1.0912   -2.5195   -0.5447 H         1 <0>         0.0914
     25 H6         -0.3995    1.8533    0.5962 H         1 <0>         0.0905
     26 H7         -0.8385   -5.7806   -2.1681 H         1 <0>         0.4158
     27 H8         -0.5281   -6.5913   -0.7297 H         1 <0>         0.4317
     28 H9          0.5339    1.3420    2.1446 H         1 <0>         0.1366
     29 H10         1.4087    3.4985    2.9400 H         1 <0>         0.1608
     30 H11         5.2605    1.9708    3.2073 H         1 <0>         0.1631
     31 H12         4.5122   -0.2398    2.4314 H         1 <0>         0.1405
     32 H13        -1.0904   -3.3220   -2.1332 H         1 <0>         0.4156
@<TRIPOS>BOND
     1    1    2 1
     2    1   20 1
     3    1   22 1
     4    1   25 1
     5    2    3 1
     6    2    6 2
     7    3    4 1
     8    3   13 1
     9    3   21 1
    10    4   10 1
    11    4    5 1
    12    4   23 1
    13    5    7 1
    14    5   24 1
    15    5    6 1
    16    7    8 1
    17    7   32 1
    18    8    9 2
    19    8   12 1
    20    9   10 1
    21   10   11 2
    22   12   26 1
    23   12   27 1
    24   13   14 1
    25   14   19 ar
    26   14   15 ar
    27   15   16 ar
    28   15   28 1
    29   16   17 ar
    30   16   29 1
    31   17   18 ar
    32   18   19 ar
    33   18   30 1
    34   19   31 1
@<TRIPOS>MOLECULE
CHEMBL138500__9
   31    33     0     0     0
SMALL
USER_CHARGES

@<TRIPOS>ATOM
      1 C1         -0.1110    1.5441   -0.1842 C.3       1 <0>        -0.0911
      2 C2         -0.0309    0.0428   -0.0819 C.2       1 <0>         0.2734
      3 C3         -1.1957   -0.8432    0.1108 C.2       1 <0>        -0.6034
      4 C4         -0.6958   -2.1867   -0.4059 C.3       1 <0>        -0.0786
      5 C5          0.7989   -2.0852   -0.0132 C.3       1 <0>         0.3079
      6 N1          1.0665   -0.6370   -0.1571 N.2       1 <0>        -0.6452
      7 N2          0.9346   -2.4177    1.4115 N.pl3     1 <0>        -0.7305
      8 C6          0.2628   -3.4772    1.9361 C.2       1 <0>         0.6892
      9 N3         -0.8707   -3.8861    1.3905 N.2       1 <0>        -0.6906
     10 C7         -1.3638   -3.3174    0.3028 C.2       1 <0>         0.5385
     11 O1         -2.4143   -3.7369   -0.1419 O.2       1 <0>        -0.5294
     12 N4          0.7600   -4.1212    3.0289 N.pl3     1 <0>        -0.8303
     13 S1         -2.6860   -0.4678    0.7382 S.3       1 <0>         0.1105
     14 C8         -3.6286    0.0237   -0.6670 C.ar      1 <0>        -0.0953
     15 C9         -3.1027   -0.0842   -1.9584 C.ar      1 <0>        -0.1693
     16 C10        -3.8750    0.3122   -3.0306 C.ar      1 <0>         0.0921
     17 N5         -5.0923    0.7875   -2.8495 N.ar      1 <0>        -0.5245
     18 C11        -5.6258    0.9058   -1.6486 C.ar      1 <0>         0.0930
     19 C12        -4.9253    0.5271   -0.5221 C.ar      1 <0>        -0.1856
     20 H1          0.8954    1.9584   -0.2451 H         1 <0>         0.0564
     21 H2         -0.6714    1.8180   -1.0781 H         1 <0>         0.0650
     22 H3         -0.6150    1.9420    0.6966 H         1 <0>         0.0697
     23 H4         -0.8275   -2.2684   -1.4848 H         1 <0>         0.0591
     24 H5          1.4400   -2.6920   -0.6527 H         1 <0>         0.0789
     25 H6          1.5912   -3.8236    3.4307 H         1 <0>         0.4036
     26 H7          1.5058   -1.8786    1.9806 H         1 <0>         0.3930
     27 H8         -2.1067   -0.4718   -2.1139 H         1 <0>         0.1287
     28 H9         -3.4776    0.2327   -4.0317 H         1 <0>         0.1373
     29 H10        -6.6260    1.3001   -1.5465 H         1 <0>         0.1392
     30 H11        -5.3699    0.6223    0.4576 H         1 <0>         0.1202
     31 H12         0.2828   -4.8773    3.4051 H         1 <0>         0.4178
@<TRIPOS>BOND
     1    1    2 1
     2    1   20 1
     3    1   21 1
     4    1   22 1
     5    2    6 2
     6    2    3 1
     7    3   13 1
     8    3    4 1
     9    4   10 1
    10    4    5 1
    11    4   23 1
    12    5    6 1
    13    5   24 1
    14    5    7 1
    15    7   26 1
    16    7    8 1
    17    8   12 1
    18    8    9 2
    19    9   10 1
    20   10   11 2
    21   12   25 1
    22   12   31 1
    23   13   14 1
    24   14   19 ar
    25   14   15 ar
    26   15   16 ar
    27   15   27 1
    28   16   17 ar
    29   16   28 1
    30   17   18 ar
    31   18   19 ar
    32   18   29 1
    33   19   30 1
@<TRIPOS>MOLECULE
CHEMBL138500__10
   31    33     0     0     0
SMALL
NO_CHARGES

@<TRIPOS>ATOM
      1 C1         -0.0418    1.4224   -0.1044 C.3       1 <0>        -0.1042
      2 C2         -0.0081   -0.0831   -0.0456 C.2       1 <0>         0.2015
      3 C3          0.1322   -0.8944    1.2292 C.3       1 <0>        -0.1077
      4 C4          0.6630   -2.2616    0.7033 C.3       1 <0>        -0.1810
      5 C5         -0.0292   -2.2670   -0.6827 C.3       1 <0>         0.2872
      6 N1         -0.0992   -0.8525   -1.0617 N.2       1 <0>        -0.4899
      7 N2          0.7749   -3.0339   -1.6285 N.pl3     1 <0>        -0.6986
      8 C6          2.1254   -2.8543   -1.6750 C.2       1 <0>         0.5661
      9 N3          2.7701   -2.4237   -0.6034 N.2       1 <0>        -0.5238
     10 C7          2.1506   -2.1296    0.5257 C.2       1 <0>         0.4897
     11 O1          2.8136   -1.7340    1.4644 O.2       1 <0>        -0.4285
     12 N4          2.8098   -3.1184   -2.8230 N.2       1 <0>        -0.4520
     13 S1         -1.4761   -1.0980    2.0433 S.3       1 <0>        -0.0395
     14 C8         -1.0814   -1.8600    3.5822 C.ar      1 <0>        -0.0554
     15 C9          0.2463   -2.0462    3.9694 C.ar      1 <0>        -0.1852
     16 C10         0.5125   -2.6462    5.1817 C.ar      1 <0>         0.1231
     17 N5         -0.4689   -3.0423    5.9709 N.ar      1 <0>        -0.4853
     18 C11        -1.7373   -2.8842    5.6408 C.ar      1 <0>         0.1185
     19 C12        -2.0884   -2.2880    4.4484 C.ar      1 <0>        -0.1508
     20 H1          0.9774    1.8080   -0.1295 H         1 <0>         0.0949
     21 H2          0.8531   -0.4331    1.9041 H         1 <0>         0.1353
     22 H3         -0.5723    1.7392   -1.0024 H         1 <0>         0.0929
     23 H4          0.3858   -3.1036    1.3376 H         1 <0>         0.1436
     24 H5         -1.0292   -2.6935   -0.6046 H         1 <0>         0.1435
     25 H6         -0.5550    1.8090    0.7761 H         1 <0>         0.0923
     26 H7          3.7708   -2.9903   -2.8551 H         1 <0>         0.3797
     27 H8          1.0539   -1.7251    3.3282 H         1 <0>         0.1416
     28 H9          1.5370   -2.7944    5.4896 H         1 <0>         0.1616
     29 H10        -2.5098   -3.2229    6.3152 H         1 <0>         0.1641
     30 H11        -3.1280   -2.1579    4.1864 H         1 <0>         0.1423
     31 H12         0.3489   -3.6705   -2.2236 H         1 <0>         0.4241
@<TRIPOS>BOND
     1    1    2 1
     2    1   20 1
     3    1   22 1
     4    1   25 1
     5    2    3 1
     6    2    6 2
     7    3    4 1
     8    3   13 1
     9    3   21 1
    10    4   10 1
    11    4    5 1
    12    4   23 1
    13    5    7 1
    14    5   24 1
    15    5    6 1
    16    7    8 1
    17    7   31 1
    18    8    9 2
    19    8   12 1
    20    9   10 1
    21   10   11 2
    22   12   26 1
    23   13   14 1
    24   14   19 ar
    25   14   15 ar
    26   15   16 ar
    27   15   27 1
    28   16   17 ar
    29   16   28 1
    30   17   18 ar
    31   18   19 ar
    32   18   29 1
    33   19   30 1
@<TRIPOS>MOLECULE
CHEMBL138500__11
   32    34     0     0     0
SMALL
NO_CHARGES

@<TRIPOS>ATOM
      1 C1         -0.0418    1.4224   -0.1044 C.3       1 <0>        -0.1039
      2 C2         -0.0081   -0.0831   -0.0456 C.2       1 <0>         0.2060
      3 C3          0.1322   -0.8944    1.2292 C.3       1 <0>        -0.1043
      4 C4          0.6630   -2.2616    0.7033 C.3       1 <0>        -0.1859
      5 C5         -0.0292   -2.2670   -0.6827 C.3       1 <0>         0.2911
      6 N1         -0.0992   -0.8525   -1.0617 N.2       1 <0>        -0.4956
      7 N2          0.7749   -3.0339   -1.6285 N.pl3     1 <0>        -0.7328
      8 C6          2.1254   -2.8543   -1.6750 C.2       1 <0>         0.7091
      9 N3          2.7701   -2.4237   -0.6034 N.2       1 <0>        -0.6746
     10 C7          2.1506   -2.1296    0.5257 C.2       1 <0>         0.5318
     11 O1          2.8136   -1.7340    1.4644 O.2       1 <0>        -0.4989
     12 N4          2.8098   -3.1184   -2.8230 N.pl3     1 <0>        -0.8056
     13 S1         -1.4761   -1.0980    2.0433 S.3       1 <0>        -0.0513
     14 C8         -1.0814   -1.8600    3.5822 C.ar      1 <0>        -0.0531
     15 C9          0.2463   -2.0462    3.9694 C.ar      1 <0>        -0.1831
     16 C10         0.5125   -2.6462    5.1817 C.ar      1 <0>         0.1224
     17 N5         -0.4689   -3.0423    5.9709 N.ar      1 <0>        -0.4864
     18 C11        -1.7373   -2.8842    5.6408 C.ar      1 <0>         0.1166
     19 C12        -2.0884   -2.2880    4.4484 C.ar      1 <0>        -0.1523
     20 H1          0.9774    1.8080   -0.1295 H         1 <0>         0.0951
     21 H2          0.8531   -0.4331    1.9041 H         1 <0>         0.1344
     22 H3         -0.5723    1.7392   -1.0024 H         1 <0>         0.0909
     23 H4          0.3858   -3.1036    1.3376 H         1 <0>         0.1350
     24 H5         -1.0292   -2.6935   -0.6046 H         1 <0>         0.1362
     25 H6         -0.5550    1.8090    0.7761 H         1 <0>         0.0910
     26 H7          2.3361   -3.4345   -3.6082 H         1 <0>         0.4152
     27 H8          3.7708   -2.9903   -2.8551 H         1 <0>         0.4295
     28 H9          1.0539   -1.7251    3.3282 H         1 <0>         0.1446
     29 H10         1.5370   -2.7944    5.4896 H         1 <0>         0.1615
     30 H11        -2.5098   -3.2229    6.3152 H         1 <0>         0.1631
     31 H12        -3.1280   -2.1579    4.1864 H         1 <0>         0.1411
     32 H13         0.3489   -3.6705   -2.2236 H         1 <0>         0.4130
@<TRIPOS>BOND
     1    1    2 1
     2    1   20 1
     3    1   22 1
     4    1   25 1
     5    2    3 1
     6    2    6 2
     7    3    4 1
     8    3   13 1
     9    3   21 1
    10    4   10 1
    11    4    5 1
    12    4   23 1
    13    5    7 1
    14    5   24 1
    15    5    6 1
    16    7    8 1
    17    7   32 1
    18    8    9 2
    19    8   12 1
    20    9   10 1
    21   10   11 2
    22   12   26 1
    23   12   27 1
    24   13   14 1
    25   14   19 ar
    26   14   15 ar
    27   15   16 ar
    28   15   28 1
    29   16   17 ar
    30   16   29 1
    31   17   18 ar
    32   18   19 ar
    33   18   30 1
    34   19   31 1
@<TRIPOS>MOLECULE
CHEMBL301844
   51    55     0     0     0
SMALL
USER_CHARGES

@<TRIPOS>ATOM
      1 C1         -0.0178    1.4608    0.0101 C.3       1 <0>         0.1124
      2 N1          0.0021   -0.0041    0.0020 N.pl3     1 <0>        -0.6672
      3 C2          0.0241   -0.7433    1.2666 C.3       1 <0>         0.1732
      4 C3         -1.3889   -1.0161    1.7137 C.ar      1 <0>        -0.0511
      5 C4         -2.0473   -0.1051    2.5184 C.ar      1 <0>        -0.1270
      6 C5         -3.3435   -0.3554    2.9285 C.ar      1 <0>        -0.0210
      7 C6         -3.9814   -1.5164    2.5336 C.ar      1 <0>        -0.6557
      8 C7         -3.3234   -2.4270    1.7282 C.ar      1 <0>        -0.0201
      9 C8         -2.0287   -2.1747    1.3145 C.ar      1 <0>        -0.1207
     10 S1         -5.6332   -1.8359    3.0573 S.o2      1 <0>         2.5779
     11 O1         -5.8118   -3.2445    3.0010 O.2       1 <0>        -0.9351
     12 O2         -5.8326   -1.0898    4.2501 O.2       1 <0>        -0.9358
     13 C9         -6.7074   -1.1433    1.8445 C.ar      1 <0>        -0.6578
     14 C10        -7.1343    0.1659    1.9661 C.ar      1 <0>        -0.0220
     15 C11        -7.9771    0.7093    1.0146 C.ar      1 <0>        -0.1383
     16 C12        -8.3926   -0.0563   -0.0587 C.ar      1 <0>        -0.0618
     17 C13        -7.9651   -1.3652   -0.1808 C.ar      1 <0>        -0.1384
     18 C14        -7.1188   -1.9073    0.7684 C.ar      1 <0>        -0.0224
     19 C15         0.0000   -0.6933   -1.2068 C.ar      1 <0>         0.1742
     20 C16         1.1890   -1.0347   -1.8337 C.ar      1 <0>        -0.0993
     21 C17         1.2375   -1.7222   -3.0425 C.ar      1 <0>        -0.1023
     22 C18         0.0653   -2.0981   -3.6761 C.ar      1 <0>         0.1411
     23 C19        -1.1196   -1.7517   -3.0390 C.ar      1 <0>        -0.0988
     24 C20        -1.2124   -1.0687   -1.8249 C.ar      1 <0>        -0.0368
     25 C21        -2.4977   -0.8113   -1.3286 C.ar      1 <0>        -0.0433
     26 C22        -3.5850   -1.2407   -2.0449 C.ar      1 <0>        -0.1387
     27 C23        -3.4782   -1.9268   -3.2523 C.ar      1 <0>        -0.0011
     28 C24        -2.2265   -2.1902   -3.7834 C.ar      1 <0>        -0.1665
     29 C25        -1.6375   -2.8477   -4.9539 C.2       1 <0>         0.5752
     30 O3         -2.2519   -3.3734   -5.8640 O.2       1 <0>        -0.4924
     31 N2         -0.2853   -2.7672   -4.8447 N.am      1 <0>        -0.6547
     32 H1          1.0048    1.8381    0.0023 H         1 <0>         0.0426
     33 H2         -0.5450    1.8219   -0.8730 H         1 <0>         0.0571
     34 H3         -0.5280    1.8123    0.9069 H         1 <0>         0.0607
     35 H4          0.5496   -1.6879    1.1262 H         1 <0>         0.0814
     36 H5          0.5371   -0.1514    2.0246 H         1 <0>         0.0864
     37 H6         -1.5489    0.8020    2.8269 H         1 <0>         0.1330
     38 H7         -3.8577    0.3560    3.5577 H         1 <0>         0.1418
     39 H8         -3.8216   -3.3342    1.4199 H         1 <0>         0.1410
     40 H9         -1.5158   -2.8843    0.6822 H         1 <0>         0.1298
     41 H10        -6.8097    0.7640    2.8047 H         1 <0>         0.1417
     42 H11        -8.3112    1.7319    1.1100 H         1 <0>         0.1347
     43 H12        -9.0517    0.3680   -0.8017 H         1 <0>         0.1326
     44 H13        -8.2900   -1.9634   -1.0192 H         1 <0>         0.1353
     45 H14        -6.7818   -2.9287    0.6710 H         1 <0>         0.1420
     46 H15         2.1194   -0.7540   -1.3625 H         1 <0>         0.1332
     47 H16         2.1916   -1.9628   -3.4877 H         1 <0>         0.1338
     48 H17        -2.6296   -0.2830   -0.3959 H         1 <0>         0.1361
     49 H18        -4.5711   -1.0376   -1.6541 H         1 <0>         0.1308
     50 H19        -4.3677   -2.2434   -3.7767 H         1 <0>         0.1374
     51 H20         0.3453   -3.1248   -5.4893 H         1 <0>         0.4232
@<TRIPOS>BOND
     1    1    2 1
     2    1   32 1
     3    1   33 1
     4    1   34 1
     5    2    3 1
     6    2   19 1
     7    3    4 1
     8    3   35 1
     9    3   36 1
    10    4    9 ar
    11    4    5 ar
    12    5    6 ar
    13    5   37 1
    14    6    7 ar
    15    6   38 1
    16    7    8 ar
    17    7   10 1
    18    8    9 ar
    19    8   39 1
    20    9   40 1
    21   10   11 2
    22   10   12 2
    23   10   13 1
    24   13   18 ar
    25   13   14 ar
    26   14   15 ar
    27   14   41 1
    28   15   16 ar
    29   15   42 1
    30   16   17 ar
    31   16   43 1
    32   17   18 ar
    33   17   44 1
    34   18   45 1
    35   19   24 ar
    36   19   20 ar
    37   20   21 ar
    38   20   46 1
    39   21   22 ar
    40   21   47 1
    41   22   31 1
    42   22   23 ar
    43   23   28 ar
    44   23   24 ar
    45   24   25 ar
    46   25   26 ar
    47   25   48 1
    48   26   27 ar
    49   26   49 1
    50   27   28 ar
    51   27   50 1
    52   28   29 1
    53   29   30 2
    54   29   31 am
    55   31   51 1
@<TRIPOS>MOLECULE
CHEMBL349723
   31    33     0     0     0
SMALL
USER_CHARGES

@<TRIPOS>ATOM
      1 C1         -0.0184    1.5028    0.0103 C.3       1 <0>        -0.1243
      2 C2          0.0021   -0.0041    0.0020 C.ar      1 <0>        -0.0576
      3 C3          0.0056   -0.6850   -1.2044 C.ar      1 <0>        -0.0715
      4 C4          0.0237   -2.0628   -1.2410 C.ar      1 <0>        -0.0894
      5 C5          0.0392   -2.7906   -0.0494 C.ar      1 <0>         0.1998
      6 C6          0.0362   -2.1008    1.1848 C.ar      1 <0>        -0.1855
      7 C7          0.0229   -0.6991    1.2027 C.ar      1 <0>        -0.0903
      8 S1          0.0256    0.1713    2.7347 S.3       1 <0>         0.0884
      9 C8         -1.6832    0.3586    3.1215 C.ar      1 <0>        -0.0979
     10 C9         -2.0923    1.0180    4.2840 C.ar      1 <0>        -0.1105
     11 C10        -3.4498    1.1273    4.5215 C.ar      1 <0>         0.0618
     12 N1         -4.3127    0.6163    3.6619 N.ar      1 <0>        -0.2579
     13 N2         -3.9421    0.0102    2.5935 N.ar      1 <0>        -0.2243
     14 C11        -2.6724   -0.1411    2.2750 C.ar      1 <0>         0.0328
     15 C12         0.0522   -2.8896    2.4195 C.2       1 <0>         0.5565
     16 N3          0.0691   -4.2374    2.3022 N.am      1 <0>        -0.6659
     17 C13         0.0713   -4.8266    1.0713 C.2       1 <0>         0.6417
     18 N4          0.0568   -4.1451   -0.0466 N.2       1 <0>        -0.5870
     19 N5          0.0897   -6.1968    1.0020 N.pl3     1 <0>        -0.8227
     20 O1          0.0508   -2.3515    3.5119 O.2       1 <0>        -0.4764
     21 H1          1.0042    1.8801    0.0026 H         1 <0>         0.0841
     22 H2         -0.5455    1.8639   -0.8728 H         1 <0>         0.0756
     23 H3         -0.5286    1.8543    0.9071 H         1 <0>         0.0753
     24 H4         -0.0063   -0.1282   -2.1298 H         1 <0>         0.1435
     25 H5          0.0255   -2.5787   -2.1898 H         1 <0>         0.1469
     26 H6         -1.3708    1.4288    4.9748 H         1 <0>         0.1548
     27 H7         -3.8044    1.6297    5.4094 H         1 <0>         0.1778
     28 H8         -2.3990   -0.6536    1.3645 H         1 <0>         0.1620
     29 H9          0.1006   -6.7236    1.8164 H         1 <0>         0.4143
     30 H10         0.0916   -6.6388    0.1385 H         1 <0>         0.4298
     31 H11         0.0800   -4.7895    3.0997 H         1 <0>         0.4162
@<TRIPOS>BOND
     1    1    2 1
     2    1   21 1
     3    1   22 1
     4    1   23 1
     5    2    7 ar
     6    2    3 ar
     7    3    4 ar
     8    3   24 1
     9    4    5 ar
    10    4   25 1
    11    5   18 1
    12    5    6 ar
    13    6    7 ar
    14    6   15 1
    15    7    8 1
    16    8    9 1
    17    9   14 ar
    18    9   10 ar
    19   10   11 ar
    20   10   26 1
    21   11   12 ar
    22   11   27 1
    23   12   13 ar
    24   13   14 ar
    25   14   28 1
    26   15   16 am
    27   15   20 2
    28   16   17 1
    29   16   31 1
    30   17   18 2
    31   17   19 1
    32   19   29 1
    33   19   30 1
@<TRIPOS>MOLECULE
CHEMBL325972
   59    62     0     0     0
SMALL
USER_CHARGES

@<TRIPOS>ATOM
      1 C1         -0.0021    1.3389   -0.1106 C.ar      1 <0>        -0.0503
      2 C2          1.1693    2.0607   -0.0946 C.ar      1 <0>        -0.1372
      3 C3          2.3942    1.4015   -0.0367 C.ar      1 <0>         0.1457
      4 C4          2.4381    0.0107    0.0052 C.ar      1 <0>        -0.1528
      5 C5          1.2702   -0.7169   -0.0110 C.ar      1 <0>        -0.0613
      6 C6          0.0387   -0.0578   -0.0686 C.ar      1 <0>        -0.1152
      7 C7         -1.2153   -0.8347   -0.0851 C.2       1 <0>         0.5449
      8 O1         -2.2858   -0.2602   -0.1352 O.2       1 <0>        -0.5531
      9 N1         -1.1744   -2.1812   -0.0446 N.am      1 <0>        -0.6750
     10 C8         -2.4197   -2.9527   -0.0610 C.3       1 <0>         0.0735
     11 H1         -3.1528   -2.4460   -0.6886 H         1 <0>         0.0782
     12 C9         -2.1468   -4.3498   -0.6220 C.3       1 <0>        -0.0819
     13 C10        -1.7213   -4.2368   -2.0873 C.3       1 <0>        -0.1778
     14 C11        -1.4525   -5.6128   -2.6398 C.2       1 <0>         0.4916
     15 O2         -1.5886   -6.5930   -1.9276 O.co2     1 <0>        -0.6985
     16 O3         -1.0989   -5.7459   -3.7990 O.co2     1 <0>        -0.7187
     17 C12        -2.9559   -3.0709    1.3424 C.2       1 <0>         0.5001
     18 O4         -4.1573   -3.1586    1.5306 O.co2     1 <0>        -0.7012
     19 O5         -2.1883   -3.0787    2.2896 O.co2     1 <0>        -0.7003
     20 N2          3.5762    2.1338   -0.0211 N.pl3     1 <0>        -1.0521
     21 S1          4.7691    1.7575    1.0641 S.o2      1 <0>         2.6879
     22 O6          5.0220    0.3663    0.9234 O.2       1 <0>        -0.9401
     23 O7          5.7865    2.7366    0.9049 O.2       1 <0>        -0.9614
     24 C13         4.0974    1.9867    2.6768 C.ar      1 <0>        -0.6739
     25 C14         4.1017    3.2440    3.2546 C.ar      1 <0>        -0.0301
     26 C15         3.5871    3.4320    4.5250 C.ar      1 <0>        -0.1360
     27 C16         3.0594    2.3646    5.2220 C.ar      1 <0>        -0.0383
     28 C17         3.0361    1.0991    4.6354 C.ar      1 <0>        -0.0100
     29 C18         3.5626    0.9128    3.3598 C.ar      1 <0>        -0.0036
     30 C19         2.4156   -0.0227    5.3708 C.2       1 <0>        -0.2908
     31 C20         1.6095    0.2401    6.4666 C.2       1 <0>         0.2540
     32 N3          1.0830   -0.7715    7.1497 N.2       1 <0>        -0.5922
     33 C21         1.2973   -2.0237    6.7953 C.2       1 <0>         0.6534
     34 N4          2.0592   -2.3433    5.7150 N.am      1 <0>        -0.6468
     35 C22         2.6318   -1.3635    4.9801 C.2       1 <0>         0.5562
     36 O8          3.3164   -1.6296    4.0069 O.2       1 <0>        -0.5164
     37 N5          0.7377   -3.0296    7.5357 N.pl3     1 <0>        -0.8121
     38 C23         1.3103    1.6628    6.8557 C.3       1 <0>        -0.0728
     39 C24         2.5238    2.5558    6.6157 C.3       1 <0>        -0.0778
     40 H2         -0.9521    1.8510   -0.1510 H         1 <0>         0.1396
     41 H3          1.1385    3.1398   -0.1273 H         1 <0>         0.1299
     42 H4          3.3898   -0.4979    0.0501 H         1 <0>         0.1590
     43 H5          1.3049   -1.7958    0.0208 H         1 <0>         0.1364
     44 H6         -0.3204   -2.6395   -0.0046 H         1 <0>         0.3919
     45 H7         -1.3501   -4.8226   -0.0477 H         1 <0>         0.0596
     46 H8         -3.0522   -4.9527   -0.5520 H         1 <0>         0.0722
     47 H9         -2.5180   -3.7639   -2.6615 H         1 <0>         0.0529
     48 H10        -0.8159   -3.6339   -2.1573 H         1 <0>         0.0519
     49 H11         3.7019    2.8650   -0.6459 H         1 <0>         0.4240
     50 H12         4.5095    4.0833    2.7109 H         1 <0>         0.1340
     51 H13         3.5987    4.4153    4.9716 H         1 <0>         0.1313
     52 H14         3.5566   -0.0684    2.9085 H         1 <0>         0.1698
     53 H15         2.1914   -3.2730    5.4719 H         1 <0>         0.4185
     54 H16         0.1922   -2.8168    8.3090 H         1 <0>         0.4293
     55 H17         0.8866   -3.9553    7.2870 H         1 <0>         0.4183
     56 H18         0.4726    2.0286    6.2619 H         1 <0>         0.0995
     57 H19         1.0427    1.6972    7.9118 H         1 <0>         0.0986
     58 H20         3.3020    2.3052    7.3367 H         1 <0>         0.0846
     59 H21         2.2343    3.5982    6.7490 H         1 <0>         0.0908
@<TRIPOS>BOND
     1    1    6 ar
     2    1    2 ar
     3    1   40 1
     4    2    3 ar
     5    2   41 1
     6    3    4 ar
     7    3   20 1
     8    4    5 ar
     9    4   42 1
    10    5    6 ar
    11    5   43 1
    12    6    7 1
    13    7    8 2
    14    7    9 am
    15    9   10 1
    16    9   44 1
    17   10   11 1
    18   10   12 1
    19   10   17 1
    20   12   13 1
    21   12   45 1
    22   12   46 1
    23   13   14 1
    24   13   47 1
    25   13   48 1
    26   14   15 2
    27   14   16 1
    28   17   18 2
    29   17   19 1
    30   20   21 1
    31   20   49 1
    32   21   22 2
    33   21   23 2
    34   21   24 1
    35   24   29 ar
    36   24   25 ar
    37   25   26 ar
    38   25   50 1
    39   26   27 ar
    40   26   51 1
    41   27   39 1
    42   27   28 ar
    43   28   29 ar
    44   28   30 1
    45   29   52 1
    46   30   31 2
    47   30   35 1
    48   31   32 1
    49   31   38 1
    50   32   33 2
    51   33   34 1
    52   33   37 1
    53   34   35 am
    54   34   53 1
    55   35   36 2
    56   37   54 1
    57   37   55 1
    58   38   39 1
    59   38   56 1
    60   38   57 1
    61   39   58 1
    62   39   59 1
@<TRIPOS>MOLECULE
CHEMBL325972__1
   58    61     0     0     0
SMALL
USER_CHARGES

@<TRIPOS>ATOM
      1 C1         -0.0169    1.3937    0.0097 C.ar      1 <0>        -0.0207
      2 C2          1.1662    2.0965    0.0022 C.ar      1 <0>        -0.1982
      3 C3          2.3811    1.4169   -0.0131 C.ar      1 <0>         0.2943
      4 C4          2.4034    0.0249   -0.0208 C.ar      1 <0>        -0.2728
      5 C5          1.2237   -0.6836   -0.0138 C.ar      1 <0>        -0.0246
      6 C6          0.0021   -0.0041    0.0020 C.ar      1 <0>        -0.2244
      7 C7         -1.2644   -0.7605    0.0105 C.2       1 <0>         0.5639
      8 O1         -2.3263   -0.1682    0.0243 O.2       1 <0>        -0.5784
      9 N1         -1.2445   -2.1081    0.0031 N.am      1 <0>        -0.6905
     10 C8         -2.5022   -2.8593    0.0116 C.3       1 <0>         0.0773
     11 H1         -3.2516   -2.3197   -0.5676 H         1 <0>         0.0726
     12 C9         -2.2758   -4.2399   -0.6078 C.3       1 <0>        -0.0802
     13 C10        -1.9084   -4.0824   -2.0846 C.3       1 <0>        -0.1778
     14 C11        -1.6854   -5.4422   -2.6946 C.2       1 <0>         0.4933
     15 O2         -1.8089   -6.4445   -2.0115 O.co2     1 <0>        -0.7020
     16 O3         -1.3815   -5.5401   -3.8713 O.co2     1 <0>        -0.7226
     17 C12        -2.9829   -3.0182    1.4310 C.2       1 <0>         0.4988
     18 O4         -4.1770   -3.0939    1.6654 O.co2     1 <0>        -0.7130
     19 O5         -2.1777   -3.0709    2.3450 O.co2     1 <0>        -0.6970
     20 N2          3.5749    2.1299   -0.0211 N.2       1 <0>        -1.0881
     21 S1          5.0210    1.3232   -0.0392 S.o2      1 <0>         2.5935
     22 O6          5.1195    0.6381    1.2018 O.2       1 <0>        -1.0226
     23 O7          5.0952    0.6506   -1.2888 O.2       1 <0>        -1.0293
     24 C13         6.2959    2.5394   -0.0455 C.ar      1 <0>        -0.6103
     25 C14         6.7802    3.0264   -1.2467 C.ar      1 <0>        -0.0223
     26 C15         7.7889    3.9731   -1.2623 C.ar      1 <0>        -0.1436
     27 C16         8.3147    4.4427   -0.0763 C.ar      1 <0>        -0.0583
     28 C17         7.8160    3.9681    1.1371 C.ar      1 <0>        -0.0450
     29 C18         6.8063    3.0091    1.1481 C.ar      1 <0>        -0.0061
     30 C19         8.3487    4.5225    2.3993 C.2       1 <0>        -0.2472
     31 C20         9.0908    5.6923    2.3734 C.2       1 <0>         0.2218
     32 N3          9.6012    6.1690    3.5045 N.2       1 <0>        -0.5883
     33 C21         9.4009    5.5606    4.6574 C.2       1 <0>         0.6318
     34 N4          8.6611    4.4231    4.7495 N.am      1 <0>        -0.6509
     35 C22         8.1193    3.8793    3.6366 C.2       1 <0>         0.5426
     36 O8          7.4511    2.8613    3.6986 O.2       1 <0>        -0.4989
     37 N5          9.9535    6.0884    5.7928 N.pl3     1 <0>        -0.8241
     38 C23         9.2866    6.4296    1.0761 C.3       1 <0>        -0.0650
     39 C24         9.4320    5.4513   -0.0855 C.3       1 <0>        -0.0732
     40 H2         -0.9590    1.9215    0.0260 H         1 <0>         0.1167
     41 H3          1.1522    3.1764    0.0078 H         1 <0>         0.1117
     42 H4          3.3474   -0.4995   -0.0326 H         1 <0>         0.0984
     43 H5          1.2416   -1.7634   -0.0204 H         1 <0>         0.1101
     44 H6         -0.3974   -2.5806   -0.0078 H         1 <0>         0.3903
     45 H7         -1.4645   -4.7448   -0.0833 H         1 <0>         0.0581
     46 H8         -3.1876   -4.8309   -0.5212 H         1 <0>         0.0662
     47 H9         -2.7197   -3.5775   -2.6090 H         1 <0>         0.0513
     48 H10        -0.9966   -3.4914   -2.1711 H         1 <0>         0.0565
     49 H11         6.3685    2.6652   -2.1776 H         1 <0>         0.1369
     50 H12         8.1655    4.3446   -2.2039 H         1 <0>         0.1256
     51 H13         6.4271    2.6314    2.0861 H         1 <0>         0.1613
     52 H14         8.5220    4.0028    5.6125 H         1 <0>         0.4123
     53 H15        10.4838    6.8990    5.7425 H         1 <0>         0.4259
     54 H16         9.8148    5.6519    6.6478 H         1 <0>         0.4130
     55 H17         8.4265    7.0745    0.8965 H         1 <0>         0.0943
     56 H18        10.1856    7.0423    1.1438 H         1 <0>         0.0918
     57 H19        10.3858    4.9309    0.0007 H         1 <0>         0.0779
     58 H20         9.4090    6.0036   -1.0249 H         1 <0>         0.0870
@<TRIPOS>BOND
     1    1    6 ar
     2    1    2 ar
     3    1   40 1
     4    2    3 ar
     5    2   41 1
     6    3    4 ar
     7    3   20 1
     8    4    5 ar
     9    4   42 1
    10    5    6 ar
    11    5   43 1
    12    6    7 1
    13    7    8 2
    14    7    9 am
    15    9   10 1
    16    9   44 1
    17   10   11 1
    18   10   12 1
    19   10   17 1
    20   12   13 1
    21   12   45 1
    22   12   46 1
    23   13   14 1
    24   13   47 1
    25   13   48 1
    26   14   15 2
    27   14   16 1
    28   17   18 2
    29   17   19 1
    30   20   21 1
    31   21   22 2
    32   21   23 2
    33   21   24 1
    34   24   29 ar
    35   24   25 ar
    36   25   26 ar
    37   25   49 1
    38   26   27 ar
    39   26   50 1
    40   27   39 1
    41   27   28 ar
    42   28   29 ar
    43   28   30 1
    44   29   51 1
    45   30   31 2
    46   30   35 1
    47   31   32 1
    48   31   38 1
    49   32   33 2
    50   33   34 1
    51   33   37 1
    52   34   35 am
    53   34   52 1
    54   35   36 2
    55   37   53 1
    56   37   54 1
    57   38   39 1
    58   38   55 1
    59   38   56 1
    60   39   57 1
    61   39   58 1
@<TRIPOS>MOLECULE
CHEMBL253954
   31    32     0     0     0
SMALL
USER_CHARGES

@<TRIPOS>ATOM
      1 C1         -0.0165    1.3666    0.0096 C.2       1 <0>         0.1611
      2 C2          1.1481    2.0506    0.0021 C.2       1 <0>        -0.0867
      3 C3          2.3695    1.3316   -0.0134 C.2       1 <0>         0.5478
      4 O1          3.4324    1.9260   -0.0200 O.2       1 <0>        -0.5080
      5 N1          2.3438   -0.0164   -0.0204 N.am      1 <0>        -0.6479
      6 H1          3.1758   -0.5151   -0.0307 H         1 <0>         0.4381
      7 C4          1.1691   -0.6733   -0.0127 C.2       1 <0>         0.6884
      8 O2          1.1625   -1.8892   -0.0192 O.2       1 <0>        -0.4716
      9 N2          0.0021   -0.0041    0.0020 N.am      1 <0>        -0.5159
     10 C5         -1.2605   -0.7471    0.0106 C.3       1 <0>         0.2723
     11 H2         -2.1016   -0.0632    0.1241 H         1 <0>         0.1329
     12 C6         -1.4086   -1.5707   -1.2879 C.3       1 <0>         0.0238
     13 H3         -2.0417   -1.0456   -2.0031 H         1 <0>         0.1141
     14 C7         -2.0848   -2.8810   -0.8263 C.3       1 <0>         0.0562
     15 H4         -1.4411   -3.7362   -1.0325 H         1 <0>         0.1011
     16 C8         -2.2652   -2.6941    0.6965 C.3       1 <0>         0.0919
     17 H5         -3.2614   -2.3102    0.9163 H         1 <0>         0.0985
     18 O3         -1.2610   -1.7254    1.0730 O.3       1 <0>        -0.3232
     19 C9         -2.0327   -4.0182    1.4270 C.3       1 <0>         0.1399
     20 O4         -2.3174   -3.8515    2.8174 O.3       1 <0>        -0.7507
     21 P1         -2.1793   -5.0444    3.8898 P.3       1 <0>         2.1262
     22 O5         -3.0382   -6.2686    3.4227 O.2       1 <0>        -1.1873
     23 O6         -0.6768   -5.4734    4.0031 O.3       1 <0>        -1.1844
     24 O7         -2.6886   -4.5519    5.2871 O.3       1 <0>        -1.1658
     25 O8         -3.3516   -3.0435   -1.4672 O.3       1 <0>        -0.5406
     26 F1         -0.1536   -1.8342   -1.8471 F         1 <0>        -0.1829
     27 F2          1.1488    3.4016    0.0089 F         1 <0>        -0.1064
     28 H6         -0.9573    1.8966    0.0259 H         1 <0>         0.1903
     29 H7         -2.6887   -4.7828    1.0109 H         1 <0>         0.0612
     30 H8         -0.9938   -4.3240    1.3029 H         1 <0>         0.0488
     31 H9         -3.2998   -3.1060   -2.4307 H         1 <0>         0.3790
@<TRIPOS>BOND
     1    1    9 1
     2    1    2 2
     3    1   28 1
     4    2    3 1
     5    2   27 1
     6    3    4 2
     7    3    5 am
     8    5    6 1
     9    5    7 am
    10    7    8 2
    11    7    9 am
    12    9   10 1
    13   10   11 1
    14   10   18 1
    15   10   12 1
    16   12   13 1
    17   12   14 1
    18   12   26 1
    19   14   15 1
    20   14   16 1
    21   14   25 1
    22   16   17 1
    23   16   18 1
    24   16   19 1
    25   19   20 1
    26   19   29 1
    27   19   30 1
    28   20   21 1
    29   21   22 2
    30   21   23 1
    31   21   24 1
    32   25   31 1
@<TRIPOS>MOLECULE
CHEMBL253954__1
   32    33     0     0     0
SMALL
USER_CHARGES

@<TRIPOS>ATOM
      1 C1         -0.0165    1.3666    0.0096 C.2       1 <0>         0.1511
      2 C2          1.1481    2.0506    0.0021 C.2       1 <0>        -0.0739
      3 C3          2.3695    1.3316   -0.0134 C.2       1 <0>         0.5446
      4 O1          3.4324    1.9260   -0.0200 O.2       1 <0>        -0.4978
      5 N1          2.3438   -0.0164   -0.0204 N.am      1 <0>        -0.6481
      6 H1          3.1758   -0.5151   -0.0307 H         1 <0>         0.4395
      7 C4          1.1691   -0.6733   -0.0127 C.2       1 <0>         0.6926
      8 O2          1.1625   -1.8892   -0.0192 O.2       1 <0>        -0.4814
      9 N2          0.0021   -0.0041    0.0020 N.am      1 <0>        -0.5187
     10 C5         -1.2605   -0.7471    0.0106 C.3       1 <0>         0.2780
     11 H2         -2.1016   -0.0632    0.1241 H         1 <0>         0.1358
     12 C6         -1.4086   -1.5707   -1.2879 C.3       1 <0>         0.0234
     13 H3         -2.0417   -1.0456   -2.0031 H         1 <0>         0.1186
     14 C7         -2.0848   -2.8810   -0.8263 C.3       1 <0>         0.0571
     15 H4         -1.4411   -3.7362   -1.0325 H         1 <0>         0.1030
     16 C8         -2.2652   -2.6941    0.6965 C.3       1 <0>         0.0899
     17 H5         -3.2614   -2.3102    0.9163 H         1 <0>         0.1032
     18 O3         -1.2610   -1.7254    1.0730 O.3       1 <0>        -0.3305
     19 C9         -2.0327   -4.0182    1.4270 C.3       1 <0>         0.1460
     20 O4         -2.3174   -3.8515    2.8174 O.3       1 <0>        -0.7540
     21 P1         -2.1793   -5.0444    3.8898 P.3       1 <0>         2.2108
     22 O5         -3.0263   -6.2516    3.4292 O.2       1 <0>        -1.1070
     23 O6         -0.6976   -5.4675    4.0015 O.3       1 <0>        -1.1034
     24 O7         -2.7026   -4.5383    5.3258 O.3       1 <0>        -0.8968
     25 O8         -3.3516   -3.0435   -1.4672 O.3       1 <0>        -0.5423
     26 F1         -0.1536   -1.8342   -1.8471 F         1 <0>        -0.1790
     27 F2          1.1488    3.4016    0.0089 F         1 <0>        -0.1023
     28 H6         -0.9573    1.8966    0.0259 H         1 <0>         0.1915
     29 H7         -2.6887   -4.7828    1.0109 H         1 <0>         0.0797
     30 H8         -0.9938   -4.3240    1.3029 H         1 <0>         0.0688
     31 H9         -2.6486   -5.2070    6.0222 H         1 <0>         0.4150
     32 H10        -3.2998   -3.1060   -2.4307 H         1 <0>         0.3868
@<TRIPOS>BOND
     1    1    9 1
     2    1    2 2
     3    1   28 1
     4    2    3 1
     5    2   27 1
     6    3    4 2
     7    3    5 am
     8    5    6 1
     9    5    7 am
    10    7    8 2
    11    7    9 am
    12    9   10 1
    13   10   11 1
    14   10   18 1
    15   10   12 1
    16   12   13 1
    17   12   14 1
    18   12   26 1
    19   14   15 1
    20   14   16 1
    21   14   25 1
    22   16   17 1
    23   16   18 1
    24   16   19 1
    25   19   20 1
    26   19   29 1
    27   19   30 1
    28   20   21 1
    29   21   22 2
    30   21   23 1
    31   21   24 1
    32   24   31 1
    33   25   32 1
@<TRIPOS>MOLECULE
CHEMBL356569
   56    59     0     0     0
SMALL
USER_CHARGES

@<TRIPOS>ATOM
      1 C1          0.3023    1.2353    0.6561 C.3       1 <0>         0.0323
      2 O1          0.1465   -0.1840    0.5972 O.3       1 <0>        -0.3544
      3 C2         -1.0081   -0.6500    0.0959 C.2       1 <0>         0.4398
      4 O2         -1.8584    0.1215   -0.2805 O.2       1 <0>        -0.4908
      5 C3         -1.2439   -2.1355    0.0025 C.3       1 <0>         0.1993
      6 H1         -0.7546   -2.6344    0.8390 H         1 <0>         0.1192
      7 C4         -0.6671   -2.6617   -1.3133 C.3       1 <0>        -0.0875
      8 C5         -1.4770   -2.1595   -2.4915 C.2       1 <0>         0.1365
      9 N1         -1.9692   -3.1830   -3.0921 N.2       1 <0>        -0.4560
     10 C6         -1.6347   -4.3789   -2.5198 C.ar      1 <0>         0.0521
     11 C7         -0.8237   -4.1627   -1.4025 C.ar      1 <0>        -0.1118
     12 C8         -0.3561   -5.2139   -0.6550 C.ar      1 <0>        -0.0687
     13 C9         -0.6885   -6.5126   -1.0068 C.ar      1 <0>        -0.1034
     14 C10        -1.4903   -6.7449   -2.1097 C.ar      1 <0>        -0.1152
     15 C11        -1.9634   -5.6936   -2.8661 C.ar      1 <0>        -0.0793
     16 N2         -2.6832   -2.4053    0.0472 N.pl3     1 <0>        -1.1254
     17 P1         -3.4041   -2.7762    1.4728 P.3       1 <0>         2.2919
     18 O3         -4.9132   -3.0121    1.2407 O.2       1 <0>        -1.1086
     19 O4         -2.7660   -4.0573    2.0545 O.3       1 <0>        -1.0786
     20 O5         -3.2041   -1.5593    2.5079 O.3       1 <0>        -0.7464
     21 C12        -3.9343   -0.3342    2.4194 C.3       1 <0>         0.1247
     22 C13        -3.5026    0.5998    3.5516 C.3       1 <0>         0.0832
     23 C14        -4.2436    1.9562    3.4420 C.3       1 <0>         0.0779
     24 C15        -4.1906    2.4410    4.9165 C.3       1 <0>        -0.1964
     25 C16        -4.2985    1.1159    5.7012 C.3       1 <0>         0.2902
     26 O6         -3.8970    0.0585    4.8223 O.3       1 <0>        -0.3375
     27 N3         -3.4132    1.1557    6.8678 N.am      1 <0>        -0.5219
     28 C17        -2.0561    1.2276    6.6882 C.2       1 <0>         0.1570
     29 C18        -1.2408    1.2642    7.7644 C.2       1 <0>        -0.0778
     30 C19        -1.8101    1.2272    9.0619 C.2       1 <0>         0.5456
     31 O7         -1.0956    1.2594   10.0476 O.2       1 <0>        -0.4952
     32 N4         -3.1500    1.1564    9.1948 N.am      1 <0>        -0.6481
     33 H2         -3.5467    1.1308   10.0796 H         1 <0>         0.4385
     34 C20        -3.9398    1.1268    8.1054 C.2       1 <0>         0.7027
     35 O8         -5.1467    1.0683    8.2418 O.2       1 <0>        -0.5269
     36 F1          0.0991    1.3347    7.6063 F         1 <0>        -0.1017
     37 O9         -3.5459    2.8560    2.5786 O.3       1 <0>        -0.5436
     38 H3          1.2770    1.4765    1.0803 H         1 <0>         0.0979
     39 H4          0.2306    1.6507   -0.3490 H         1 <0>         0.0576
     40 H5         -0.4818    1.6612    1.2821 H         1 <0>         0.0616
     41 H6          0.3804   -2.3774   -1.4138 H         1 <0>         0.1274
     42 H7         -1.6154   -1.1268   -2.7755 H         1 <0>         0.1894
     43 H8          0.2701   -5.0297    0.2055 H         1 <0>         0.1275
     44 H9         -0.3217   -7.3422   -0.4207 H         1 <0>         0.1298
     45 H10        -1.7474   -7.7581   -2.3810 H         1 <0>         0.1281
     46 H11        -2.5890   -5.8852   -3.7253 H         1 <0>         0.1251
     47 H12        -3.2098   -2.3645   -0.7664 H         1 <0>         0.3975
     48 H13        -3.7321    0.1408    1.4594 H         1 <0>         0.0697
     49 H14        -5.0013   -0.5402    2.5052 H         1 <0>         0.0669
     50 H15        -2.4238    0.7531    3.5241 H         1 <0>         0.0895
     51 H16        -5.2727    1.8160    3.1113 H         1 <0>         0.0927
     52 H17        -3.2449    2.9406    5.1268 H         1 <0>         0.0979
     53 H18        -5.0339    3.0943    5.1405 H         1 <0>         0.1060
     54 H19        -5.3283    0.9591    6.0222 H         1 <0>         0.1486
     55 H20        -1.6410    1.2545    5.6915 H         1 <0>         0.1853
     56 H21        -3.9734    3.7177    2.4802 H         1 <0>         0.3858
@<TRIPOS>BOND
     1    1    2 1
     2    1   38 1
     3    1   39 1
     4    1   40 1
     5    2    3 1
     6    3    4 2
     7    3    5 1
     8    5    6 1
     9    5    7 1
    10    5   16 1
    11    7   11 1
    12    7    8 1
    13    7   41 1
    14    8    9 2
    15    8   42 1
    16    9   10 1
    17   10   15 ar
    18   10   11 ar
    19   11   12 ar
    20   12   13 ar
    21   12   43 1
    22   13   14 ar
    23   13   44 1
    24   14   15 ar
    25   14   45 1
    26   15   46 1
    27   16   17 1
    28   16   47 1
    29   17   18 2
    30   17   19 1
    31   17   20 1
    32   20   21 1
    33   21   22 1
    34   21   48 1
    35   21   49 1
    36   22   26 1
    37   22   23 1
    38   22   50 1
    39   23   24 1
    40   23   37 1
    41   23   51 1
    42   24   25 1
    43   24   52 1
    44   24   53 1
    45   25   26 1
    46   25   27 1
    47   25   54 1
    48   27   34 am
    49   27   28 1
    50   28   29 2
    51   28   55 1
    52   29   30 1
    53   29   36 1
    54   30   31 2
    55   30   32 am
    56   32   33 1
    57   32   34 am
    58   34   35 2
    59   37   56 1
@<TRIPOS>MOLECULE
CHEMBL116589
   59    62     0     0     0
SMALL
USER_CHARGES

@<TRIPOS>ATOM
      1 C1         -0.0021    1.3389   -0.1106 C.ar      1 <0>        -0.0495
      2 C2          1.1694    2.0608   -0.0946 C.ar      1 <0>        -0.1364
      3 C3          2.3942    1.4015   -0.0367 C.ar      1 <0>         0.1451
      4 C4          2.4381    0.0107    0.0051 C.ar      1 <0>        -0.1571
      5 C5          1.2702   -0.7168   -0.0111 C.ar      1 <0>        -0.0640
      6 C6          0.0387   -0.0578   -0.0687 C.ar      1 <0>        -0.1109
      7 C7         -1.2153   -0.8347   -0.0852 C.2       1 <0>         0.5509
      8 O1         -2.2858   -0.2601   -0.1353 O.2       1 <0>        -0.5543
      9 N1         -1.1744   -2.1812   -0.0448 N.am      1 <0>        -0.6748
     10 C8         -2.4197   -2.9527   -0.0612 C.3       1 <0>         0.0726
     11 H1         -3.1528   -2.4459   -0.6888 H         1 <0>         0.0779
     12 C9         -2.1468   -4.3497   -0.6222 C.3       1 <0>        -0.0805
     13 C10        -1.7213   -4.2367   -2.0875 C.3       1 <0>        -0.1783
     14 C11        -1.4525   -5.6127   -2.6401 C.2       1 <0>         0.4911
     15 O2         -1.5886   -6.5929   -1.9279 O.co2     1 <0>        -0.6974
     16 O3         -1.0989   -5.7458   -3.7993 O.co2     1 <0>        -0.7200
     17 C12        -2.9559   -3.0709    1.3422 C.2       1 <0>         0.4963
     18 O4         -2.3537   -2.5582    2.2701 O.co2     1 <0>        -0.6967
     19 O5         -3.9920   -3.6792    1.5497 O.co2     1 <0>        -0.7002
     20 N2          3.5762    2.1338   -0.0211 N.pl3     1 <0>        -1.0525
     21 S1          4.7691    1.7575    1.0641 S.o2      1 <0>         2.6908
     22 O6          5.0219    0.3663    0.9234 O.2       1 <0>        -0.9469
     23 O7          5.7865    2.7366    0.9049 O.2       1 <0>        -0.9609
     24 C13         4.0974    1.9867    2.6768 C.ar      1 <0>        -0.6804
     25 C14         4.1032    3.2452    3.2520 C.ar      1 <0>        -0.0208
     26 C15         3.5879    3.4287    4.5196 C.ar      1 <0>        -0.1337
     27 C16         3.0628    2.3448    5.2158 C.ar      1 <0>         0.0584
     28 C17         3.0395    1.0804    4.6238 C.ar      1 <0>        -0.1036
     29 C18         3.5622    0.9085    3.3587 C.ar      1 <0>        -0.0064
     30 C19         2.4127   -0.0779    5.3523 C.3       1 <0>        -0.0826
     31 C20         2.6717    0.0225    6.8525 C.3       1 <0>        -0.0744
     32 C21         2.2999    1.3870    7.3672 C.2       1 <0>         0.2670
     33 C22         2.5097    2.5054    6.5768 C.2       1 <0>        -0.2953
     34 C23         2.1852    3.7819    7.0893 C.2       1 <0>         0.5590
     35 N3          1.6558    3.8563    8.3311 N.am      1 <0>        -0.6521
     36 C24         1.4531    2.7203    9.0511 C.2       1 <0>         0.6454
     37 N4          1.7703    1.5308    8.5780 N.2       1 <0>        -0.5846
     38 N5          0.9044    2.8143   10.3014 N.pl3     1 <0>        -0.8159
     39 O8          2.3777    4.7889    6.4294 O.2       1 <0>        -0.5262
     40 H2         -0.9521    1.8510   -0.1510 H         1 <0>         0.1391
     41 H3          1.1385    3.1398   -0.1273 H         1 <0>         0.1290
     42 H4          3.3898   -0.4979    0.0500 H         1 <0>         0.1584
     43 H5          1.3049   -1.7958    0.0207 H         1 <0>         0.1374
     44 H6         -0.3204   -2.6395   -0.0048 H         1 <0>         0.3899
     45 H7         -1.3501   -4.8226   -0.0479 H         1 <0>         0.0556
     46 H8         -3.0522   -4.9526   -0.5522 H         1 <0>         0.0789
     47 H9         -2.5180   -3.7638   -2.6617 H         1 <0>         0.0520
     48 H10        -0.8159   -3.6338   -2.1575 H         1 <0>         0.0507
     49 H11         3.7019    2.8650   -0.6459 H         1 <0>         0.4243
     50 H12         4.5115    4.0847    2.7089 H         1 <0>         0.1348
     51 H13         3.5928    4.4106    4.9694 H         1 <0>         0.1532
     52 H14         3.5576   -0.0700    2.9018 H         1 <0>         0.1456
     53 H15         1.3375   -0.0750    5.1728 H         1 <0>         0.0924
     54 H16         2.8359   -1.0094    4.9766 H         1 <0>         0.0982
     55 H17         2.0779   -0.7306    7.3704 H         1 <0>         0.1039
     56 H18         3.7289   -0.1580    7.0470 H         1 <0>         0.0985
     57 H19         0.6660    3.6825   10.6624 H         1 <0>         0.4150
     58 H20         0.7540    2.0127   10.8265 H         1 <0>         0.4315
     59 H21         1.4212    4.7186    8.7082 H         1 <0>         0.4131
@<TRIPOS>BOND
     1    1    6 ar
     2    1    2 ar
     3    1   40 1
     4    2    3 ar
     5    2   41 1
     6    3    4 ar
     7    3   20 1
     8    4    5 ar
     9    4   42 1
    10    5    6 ar
    11    5   43 1
    12    6    7 1
    13    7    8 2
    14    7    9 am
    15    9   10 1
    16    9   44 1
    17   10   11 1
    18   10   12 1
    19   10   17 1
    20   12   13 1
    21   12   45 1
    22   12   46 1
    23   13   14 1
    24   13   47 1
    25   13   48 1
    26   14   15 2
    27   14   16 1
    28   17   18 2
    29   17   19 1
    30   20   21 1
    31   20   49 1
    32   21   22 2
    33   21   23 2
    34   21   24 1
    35   24   29 ar
    36   24   25 ar
    37   25   26 ar
    38   25   50 1
    39   26   27 ar
    40   26   51 1
    41   27   28 ar
    42   27   33 1
    43   28   29 ar
    44   28   30 1
    45   29   52 1
    46   30   31 1
    47   30   53 1
    48   30   54 1
    49   31   55 1
    50   31   56 1
    51   31   32 1
    52   32   37 1
    53   32   33 2
    54   33   34 1
    55   34   39 2
    56   34   35 am
    57   35   59 1
    58   35   36 1
    59   36   38 1
    60   36   37 2
    61   38   57 1
    62   38   58 1
@<TRIPOS>MOLECULE
CHEMBL116589__1
   58    61     0     0     0
SMALL
USER_CHARGES

@<TRIPOS>ATOM
      1 C1         -0.0169    1.3937    0.0097 C.ar      1 <0>        -0.0208
      2 C2          1.1662    2.0965    0.0022 C.ar      1 <0>        -0.1977
      3 C3          2.3811    1.4169   -0.0131 C.ar      1 <0>         0.2936
      4 C4          2.4034    0.0249   -0.0208 C.ar      1 <0>        -0.2728
      5 C5          1.2237   -0.6836   -0.0138 C.ar      1 <0>        -0.0249
      6 C6          0.0021   -0.0041    0.0020 C.ar      1 <0>        -0.2234
      7 C7         -1.2644   -0.7605    0.0105 C.2       1 <0>         0.5636
      8 O1         -2.3263   -0.1682    0.0243 O.2       1 <0>        -0.5781
      9 N1         -1.2445   -2.1081    0.0031 N.am      1 <0>        -0.6904
     10 C8         -2.5022   -2.8593    0.0116 C.3       1 <0>         0.0773
     11 H1         -3.2516   -2.3197   -0.5676 H         1 <0>         0.0726
     12 C9         -2.2758   -4.2399   -0.6078 C.3       1 <0>        -0.0802
     13 C10        -1.9084   -4.0824   -2.0846 C.3       1 <0>        -0.1778
     14 C11        -1.6854   -5.4422   -2.6946 C.2       1 <0>         0.4931
     15 O2         -1.8089   -6.4445   -2.0115 O.co2     1 <0>        -0.7020
     16 O3         -1.3815   -5.5401   -3.8713 O.co2     1 <0>        -0.7225
     17 C12        -2.9829   -3.0182    1.4310 C.2       1 <0>         0.4990
     18 O4         -4.1770   -3.0939    1.6654 O.co2     1 <0>        -0.7129
     19 O5         -2.1777   -3.0709    2.3450 O.co2     1 <0>        -0.6972
     20 N2          3.5749    2.1299   -0.0211 N.2       1 <0>        -1.0874
     21 S1          5.0210    1.3232   -0.0392 S.o2      1 <0>         2.5938
     22 O6          5.1195    0.6381    1.2018 O.2       1 <0>        -1.0288
     23 O7          5.0952    0.6506   -1.2888 O.2       1 <0>        -1.0277
     24 C13         6.2959    2.5394   -0.0455 C.ar      1 <0>        -0.6068
     25 C14         6.7781    3.0245   -1.2484 C.ar      1 <0>        -0.0251
     26 C15         7.7843    3.9697   -1.2595 C.ar      1 <0>        -0.1306
     27 C16         8.3109    4.4328   -0.0580 C.ar      1 <0>         0.0157
     28 C17         7.8072    3.9566    1.1541 C.ar      1 <0>        -0.1168
     29 C18         6.8053    3.0082    1.1523 C.ar      1 <0>        -0.0194
     30 C19         8.3330    4.5060    2.4529 C.3       1 <0>        -0.0720
     31 C20         9.8251    4.8064    2.3487 C.3       1 <0>        -0.0683
     32 C21        10.1170    5.6393    1.1296 C.2       1 <0>         0.2370
     33 C22         9.3930    5.4390   -0.0346 C.2       1 <0>        -0.2603
     34 C23         9.7030    6.2075   -1.1795 C.2       1 <0>         0.5513
     35 N3         10.6854    7.1313   -1.0823 N.am      1 <0>        -0.6518
     36 C24        11.3465    7.2969    0.0947 C.2       1 <0>         0.6326
     37 N4         11.0669    6.5689    1.1583 N.2       1 <0>        -0.5852
     38 N5         12.3294    8.2457    0.1777 N.pl3     1 <0>        -0.8230
     39 O8          9.1010    6.0416   -2.2268 O.2       1 <0>        -0.5174
     40 H2         -0.9590    1.9215    0.0260 H         1 <0>         0.1169
     41 H3          1.1522    3.1764    0.0078 H         1 <0>         0.1119
     42 H4          3.3474   -0.4995   -0.0326 H         1 <0>         0.0985
     43 H5          1.2416   -1.7634   -0.0204 H         1 <0>         0.1102
     44 H6         -0.3974   -2.5806   -0.0078 H         1 <0>         0.3903
     45 H7         -1.4645   -4.7448   -0.0833 H         1 <0>         0.0582
     46 H8         -3.1876   -4.8309   -0.5212 H         1 <0>         0.0663
     47 H9         -2.7197   -3.5775   -2.6090 H         1 <0>         0.0513
     48 H10        -0.9966   -3.4914   -2.1711 H         1 <0>         0.0565
     49 H11         6.3672    2.6630   -2.1794 H         1 <0>         0.1371
     50 H12         8.1617    4.3481   -2.1980 H         1 <0>         0.1467
     51 H13         6.4212    2.6279    2.0873 H         1 <0>         0.1383
     52 H14         7.7983    5.4240    2.6967 H         1 <0>         0.0783
     53 H15         8.1686    3.7749    3.2444 H         1 <0>         0.0911
     54 H16        10.1452    5.3484    3.2386 H         1 <0>         0.0943
     55 H17        10.3763    3.8684    2.2822 H         1 <0>         0.0955
     56 H18        12.5459    8.7887   -0.5963 H         1 <0>         0.4126
     57 H19        12.8094    8.3751    1.0106 H         1 <0>         0.4276
     58 H20        10.9186    7.6750   -1.8510 H         1 <0>         0.4106
@<TRIPOS>BOND
     1    1    6 ar
     2    1    2 ar
     3    1   40 1
     4    2    3 ar
     5    2   41 1
     6    3    4 ar
     7    3   20 1
     8    4    5 ar
     9    4   42 1
    10    5    6 ar
    11    5   43 1
    12    6    7 1
    13    7    8 2
    14    7    9 am
    15    9   10 1
    16    9   44 1
    17   10   11 1
    18   10   12 1
    19   10   17 1
    20   12   13 1
    21   12   45 1
    22   12   46 1
    23   13   14 1
    24   13   47 1
    25   13   48 1
    26   14   15 2
    27   14   16 1
    28   17   18 2
    29   17   19 1
    30   20   21 1
    31   21   22 2
    32   21   23 2
    33   21   24 1
    34   24   29 ar
    35   24   25 ar
    36   25   26 ar
    37   25   49 1
    38   26   27 ar
    39   26   50 1
    40   27   28 ar
    41   27   33 1
    42   28   29 ar
    43   28   30 1
    44   29   51 1
    45   30   31 1
    46   30   52 1
    47   30   53 1
    48   31   54 1
    49   31   55 1
    50   31   32 1
    51   32   37 1
    52   32   33 2
    53   33   34 1
    54   34   39 2
    55   34   35 am
    56   35   58 1
    57   35   36 1
    58   36   38 1
    59   36   37 2
    60   38   56 1
    61   38   57 1
@<TRIPOS>MOLECULE
CHEMBL169896
   59    63     0     0     0
SMALL
USER_CHARGES

@<TRIPOS>ATOM
      1 C1         -0.0184    1.5028    0.0103 C.3       1 <0>        -0.1120
      2 C2          0.0021   -0.0041    0.0020 C.2       1 <0>         0.3967
      3 N1          0.0048   -0.6148   -1.1450 N.2       1 <0>        -0.5255
      4 C3          0.0227   -1.9611   -1.2330 C.ar      1 <0>         0.1850
      5 C4          0.0260   -2.6149   -2.4783 C.ar      1 <0>        -0.1172
      6 C5          0.0444   -3.9657   -2.5660 C.ar      1 <0>        -0.0517
      7 C6          0.0606   -4.7762   -1.4121 C.ar      1 <0>        -0.0684
      8 C7          0.0797   -6.1761   -1.5078 C.ar      1 <0>        -0.1011
      9 C8          0.0954   -6.9314   -0.3736 C.ar      1 <0>        -0.0993
     10 C9          0.0929   -6.3351    0.8837 C.ar      1 <0>        -0.0839
     11 C10         0.0745   -4.9773    1.0131 C.ar      1 <0>        -0.0937
     12 C11         0.0581   -4.1723   -0.1305 C.ar      1 <0>         0.0047
     13 C12         0.0387   -2.7179   -0.0472 C.ar      1 <0>        -0.1999
     14 C13         0.0353   -2.0080    1.2317 C.2       1 <0>         0.5432
     15 N2          0.0222   -0.6546    1.1925 N.am      1 <0>        -0.6436
     16 O1          0.0487   -2.6106    2.2903 O.2       1 <0>        -0.5025
     17 C14         0.1100   -7.2001    2.1176 C.3       1 <0>         0.1647
     18 N3          1.4967   -7.4617    2.5113 N.pl3     1 <0>        -0.7414
     19 C15         1.7663   -8.2429    3.6295 C.ar      1 <0>         0.2264
     20 C16         0.7183   -8.7813    4.3716 C.ar      1 <0>        -0.2079
     21 C17         0.9790   -9.5554    5.4786 C.ar      1 <0>        -0.0080
     22 C18         2.3013   -9.8032    5.8612 C.ar      1 <0>        -0.1834
     23 C19         3.3490   -9.2588    5.1106 C.ar      1 <0>        -0.0343
     24 C20         3.0852   -8.4915    4.0038 C.ar      1 <0>        -0.1779
     25 C21         4.6267   -9.7069    5.7756 C.3       1 <0>         0.1401
     26 N4          4.2245  -10.5231    6.9267 N.am      1 <0>        -0.5807
     27 C22         2.8823  -10.5757    6.9719 C.2       1 <0>         0.5645
     28 O2          2.2390  -11.1762    7.8111 O.2       1 <0>        -0.5158
     29 C23         5.1360  -11.1736    7.8713 C.3       1 <0>         0.0974
     30 H1          6.1665  -10.9586    7.5884 H         1 <0>         0.0731
     31 C24         4.8729  -10.6426    9.2818 C.3       1 <0>        -0.0874
     32 C25         5.2238   -9.1545    9.3403 C.3       1 <0>        -0.1732
     33 C26         4.9647   -8.6315   10.7296 C.2       1 <0>         0.4918
     34 O3          4.5388   -9.3796   11.5931 O.co2     1 <0>        -0.6947
     35 O4          5.1809   -7.4602   10.9903 O.co2     1 <0>        -0.7243
     36 C27         4.9081  -12.6630    7.8446 C.2       1 <0>         0.4963
     37 O5          4.0627  -13.1372    7.1051 O.co2     1 <0>        -0.6824
     38 O6          5.5692  -13.3938    8.5625 O.co2     1 <0>        -0.7018
     39 H2          1.0042    1.8801    0.0026 H         1 <0>         0.1000
     40 H3         -0.5455    1.8639   -0.8728 H         1 <0>         0.1042
     41 H4         -0.5286    1.8543    0.9071 H         1 <0>         0.0877
     42 H5          0.0132   -2.0267   -3.3839 H         1 <0>         0.1393
     43 H6          0.0464   -4.4323   -3.5400 H         1 <0>         0.1375
     44 H7          0.0816   -6.6531   -2.4767 H         1 <0>         0.1324
     45 H8          0.1097   -8.0085   -0.4517 H         1 <0>         0.1302
     46 H9          0.0724   -4.5259    1.9943 H         1 <0>         0.1580
     47 H10        -0.4072   -6.6870    2.9282 H         1 <0>         0.0712
     48 H11        -0.3919   -8.1443    1.9064 H         1 <0>         0.0711
     49 H12         2.2267   -7.0898    1.9920 H         1 <0>         0.3984
     50 H13        -0.3031   -8.5902    4.0772 H         1 <0>         0.1217
     51 H14         0.1635   -9.9710    6.0519 H         1 <0>         0.1275
     52 H15         3.8985   -8.0779    3.4261 H         1 <0>         0.1214
     53 H16         5.2207  -10.3029    5.0827 H         1 <0>         0.0845
     54 H17         5.1980   -8.8414    6.1112 H         1 <0>         0.0864
     55 H18         3.8203  -10.7777    9.5305 H         1 <0>         0.0692
     56 H19         5.4882  -11.1893    9.9965 H         1 <0>         0.0725
     57 H20         6.2764   -9.0193    9.0916 H         1 <0>         0.0463
     58 H21         4.6086   -8.6078    8.6256 H         1 <0>         0.0478
     59 H22         0.0232   -0.1477    2.0195 H         1 <0>         0.4209
@<TRIPOS>BOND
     1    1    2 1
     2    1   39 1
     3    1   40 1
     4    1   41 1
     5    2   15 1
     6    2    3 2
     7    3    4 1
     8    4   13 ar
     9    4    5 ar
    10    5    6 ar
    11    5   42 1
    12    6    7 ar
    13    6   43 1
    14    7   12 ar
    15    7    8 ar
    16    8    9 ar
    17    8   44 1
    18    9   10 ar
    19    9   45 1
    20   10   11 ar
    21   10   17 1
    22   11   12 ar
    23   11   46 1
    24   12   13 ar
    25   13   14 1
    26   14   15 am
    27   14   16 2
    28   15   59 1
    29   17   18 1
    30   17   47 1
    31   17   48 1
    32   18   19 1
    33   18   49 1
    34   19   24 ar
    35   19   20 ar
    36   20   21 ar
    37   20   50 1
    38   21   22 ar
    39   21   51 1
    40   22   27 1
    41   22   23 ar
    42   23   24 ar
    43   23   25 1
    44   24   52 1
    45   25   26 1
    46   25   53 1
    47   25   54 1
    48   26   27 am
    49   26   29 1
    50   27   28 2
    51   29   30 1
    52   29   31 1
    53   29   36 1
    54   31   32 1
    55   31   55 1
    56   31   56 1
    57   32   33 1
    58   32   57 1
    59   32   58 1
    60   33   34 2
    61   33   35 1
    62   36   37 2
    63   36   38 1
@<TRIPOS>MOLECULE
CHEMBL1161459
   55    58     0     0     0
SMALL
USER_CHARGES

@<TRIPOS>ATOM
      1 C1         -0.0178    1.4608    0.0101 C.3       1 <0>         0.1058
      2 N1          0.0021   -0.0041    0.0020 N.pl3     1 <0>        -0.6457
      3 C2         -1.2533   -0.7698    0.0037 C.3       1 <0>         0.1211
      4 C3         -1.1215   -1.9057    1.0285 C.3       1 <0>         0.1155
      5 N2          0.0550   -2.7124    0.6715 N.pl3     1 <0>        -0.6288
      6 C4          1.2454   -2.0552    0.3281 C.ar      1 <0>         0.1457
      7 C5          1.2187   -0.7015   -0.0133 C.ar      1 <0>         0.1352
      8 C6          2.3919   -0.0519   -0.3602 C.ar      1 <0>        -0.1547
      9 C7          3.5878   -0.7477   -0.3710 C.ar      1 <0>        -0.1247
     10 C8          3.6158   -2.0886   -0.0374 C.ar      1 <0>        -0.1033
     11 C9          2.4467   -2.7447    0.3209 C.ar      1 <0>        -0.1469
     12 C10        -0.0150   -4.1757    0.6751 C.3       1 <0>         0.2080
     13 C11        -0.4414   -4.6615   -0.6862 C.2       1 <0>        -0.3078
     14 C12         0.4806   -5.0371   -1.5983 C.2       1 <0>         0.2127
     15 N3          0.0761   -5.4758   -2.8297 N.am      1 <0>        -0.5342
     16 C13        -1.2316   -5.5358   -3.1403 C.2       1 <0>         0.7008
     17 O1         -1.5689   -5.9283   -4.2405 O.2       1 <0>        -0.5452
     18 N4         -2.1717   -5.1680   -2.2500 N.am      1 <0>        -0.6600
     19 H1         -3.1102   -5.2182   -2.4900 H         1 <0>         0.4256
     20 C14        -1.8143   -4.7357   -1.0238 C.2       1 <0>         0.5651
     21 O2         -2.6644   -4.4076   -0.2159 O.2       1 <0>        -0.5264
     22 C15         1.0764   -5.8833   -3.8195 C.3       1 <0>         0.2992
     23 C16         0.8617   -7.3635   -4.2022 C.3       1 <0>        -0.1828
     24 C17         2.3187   -7.8886   -4.3182 C.3       1 <0>         0.0752
     25 H2          2.3705   -8.9551   -4.0993 H         1 <0>         0.0882
     26 C18         3.0197   -7.0573   -3.2144 C.3       1 <0>         0.0846
     27 H3          2.8674   -7.5190   -2.2388 H         1 <0>         0.0935
     28 O3          2.3896   -5.7672   -3.2593 O.3       1 <0>        -0.3363
     29 C19         4.5149   -6.9311   -3.5136 C.3       1 <0>         0.1414
     30 O4          5.1629   -6.2632   -2.4291 O.3       1 <0>        -0.7547
     31 P1          6.7436   -5.9583   -2.4060 P.3       1 <0>         2.1294
     32 O5          7.5360   -7.2929   -2.6191 O.2       1 <0>        -1.1917
     33 O6          7.0982   -4.9517   -3.5530 O.3       1 <0>        -1.1862
     34 O7          7.1348   -5.3337   -1.0235 O.3       1 <0>        -1.1656
     35 O8          2.8680   -7.6032   -5.6062 O.3       1 <0>        -0.5362
     36 H4          1.0048    1.8381    0.0023 H         1 <0>         0.0738
     37 H5         -0.5450    1.8219   -0.8730 H         1 <0>         0.0415
     38 H6         -0.5280    1.8123    0.9069 H         1 <0>         0.0425
     39 H7         -2.0813   -0.1177    0.2820 H         1 <0>         0.0751
     40 H8         -1.4306   -1.1874   -0.9874 H         1 <0>         0.0506
     41 H9         -0.9915   -1.4873    2.0265 H         1 <0>         0.0535
     42 H10        -2.0157   -2.5286    1.0039 H         1 <0>         0.0936
     43 H11         2.3731    0.9957   -0.6221 H         1 <0>         0.1147
     44 H12         4.5026   -0.2413   -0.6415 H         1 <0>         0.1196
     45 H13         4.5525   -2.6262   -0.0476 H         1 <0>         0.1370
     46 H14         2.4706   -3.7926    0.5814 H         1 <0>         0.1235
     47 H15         0.9657   -4.5857    0.9164 H         1 <0>         0.0909
     48 H16        -0.7392   -4.5030    1.4210 H         1 <0>         0.0866
     49 H17         1.5324   -4.9913   -1.3573 H         1 <0>         0.1903
     50 H18         0.9960   -5.2552   -4.7066 H         1 <0>         0.1194
     51 H19         0.3201   -7.8923   -3.4179 H         1 <0>         0.0879
     52 H20         0.3425   -7.4459   -5.1570 H         1 <0>         0.1027
     53 H21         4.9457   -7.9246   -3.6379 H         1 <0>         0.0534
     54 H22         4.6550   -6.3571   -4.4296 H         1 <0>         0.0539
     55 H23         2.3914   -8.0186   -6.3379 H         1 <0>         0.3737
@<TRIPOS>BOND
     1    1    2 1
     2    1   36 1
     3    1   37 1
     4    1   38 1
     5    2    7 1
     6    2    3 1
     7    3    4 1
     8    3   39 1
     9    3   40 1
    10    4    5 1
    11    4   41 1
    12    4   42 1
    13    5    6 1
    14    5   12 1
    15    6   11 ar
    16    6    7 ar
    17    7    8 ar
    18    8    9 ar
    19    8   43 1
    20    9   10 ar
    21    9   44 1
    22   10   11 ar
    23   10   45 1
    24   11   46 1
    25   12   13 1
    26   12   47 1
    27   12   48 1
    28   13   20 1
    29   13   14 2
    30   14   15 1
    31   14   49 1
    32   15   16 am
    33   15   22 1
    34   16   17 2
    35   16   18 am
    36   18   19 1
    37   18   20 am
    38   20   21 2
    39   22   28 1
    40   22   23 1
    41   22   50 1
    42   23   24 1
    43   23   51 1
    44   23   52 1
    45   24   25 1
    46   24   26 1
    47   24   35 1
    48   26   27 1
    49   26   28 1
    50   26   29 1
    51   29   30 1
    52   29   53 1
    53   29   54 1
    54   30   31 1
    55   31   32 2
    56   31   33 1
    57   31   34 1
    58   35   55 1
@<TRIPOS>MOLECULE
CHEMBL1161459__1
   56    59     0     0     0
SMALL
USER_CHARGES

@<TRIPOS>ATOM
      1 C1          0.0241    1.5124    0.1376 C.3       1 <0>        -0.0456
      2 N1          0.1695    0.0513    0.1823 N.4       1 <0>        -0.2987
      3 C2         -1.1430   -0.5644   -0.0225 C.3       1 <0>        -0.0245
      4 C3         -1.0154   -2.0862    0.1344 C.3       1 <0>         0.1076
      5 N2         -0.5827   -2.3412    1.5192 N.pl3     1 <0>        -0.6248
      6 C4          0.3769   -1.4780    2.0663 C.ar      1 <0>         0.2531
      7 C5          0.7309   -0.3114    1.4063 C.ar      1 <0>        -0.1496
      8 C6          1.6763    0.5282    1.9748 C.ar      1 <0>        -0.0670
      9 C7          2.2622    0.2043    3.1828 C.ar      1 <0>        -0.1389
     10 C8          1.9113   -0.9623    3.8367 C.ar      1 <0>        -0.0062
     11 C9          0.9690   -1.8044    3.2798 C.ar      1 <0>        -0.1712
     12 C10        -1.1346   -3.4543    2.2954 C.3       1 <0>         0.2049
     13 C11        -0.3779   -4.7166    1.9713 C.2       1 <0>        -0.3318
     14 C12         0.6493   -5.1177    2.7504 C.2       1 <0>         0.2280
     15 N3          1.3257   -6.2664    2.4417 N.am      1 <0>        -0.5319
     16 C13         0.9771   -6.9997    1.3689 C.2       1 <0>         0.6989
     17 O1          1.5919   -8.0168    1.1127 O.2       1 <0>        -0.5281
     18 N4         -0.0430   -6.6233    0.5755 N.am      1 <0>        -0.6582
     19 H1         -0.2816   -7.1640   -0.1937 H         1 <0>         0.4306
     20 C14        -0.7383   -5.5009    0.8491 C.2       1 <0>         0.5678
     21 O2         -1.6647   -5.1624    0.1347 O.2       1 <0>        -0.5305
     22 C15         2.4402   -6.7017    3.2870 C.3       1 <0>         0.2956
     23 C16         2.1340   -8.0929    3.8820 C.3       1 <0>        -0.1852
     24 C17         2.6922   -7.9641    5.3256 C.3       1 <0>         0.0756
     25 H2          2.1569   -8.6185    6.0136 H         1 <0>         0.0913
     26 C18         2.3921   -6.4737    5.6250 C.3       1 <0>         0.0851
     27 H3          1.3585   -6.3537    5.9497 H         1 <0>         0.0945
     28 O3          2.6061   -5.7905    4.3797 O.3       1 <0>        -0.3418
     29 C19         3.3489   -5.9440    6.6950 C.3       1 <0>         0.1396
     30 O4          2.9831   -4.6066    7.0410 O.3       1 <0>        -0.7581
     31 P1          3.7765   -3.7369    8.1393 P.3       1 <0>         2.1249
     32 O5          3.8311   -4.5270    9.4911 O.2       1 <0>        -1.1874
     33 O6          5.2343   -3.4632    7.6351 O.3       1 <0>        -1.1841
     34 O7          3.0360   -2.3741    8.3606 O.3       1 <0>        -1.1660
     35 O8          4.0968   -8.2245    5.3598 O.3       1 <0>        -0.5363
     36 H4          1.0107    1.9755    0.1212 H         1 <0>         0.1241
     37 H5         -0.5252    1.7956   -0.7602 H         1 <0>         0.1198
     38 H6         -0.5212    1.8504    1.0189 H         1 <0>         0.1237
     39 H7         -1.8453   -0.1796    0.7170 H         1 <0>         0.1346
     40 H8         -1.5029   -0.3304   -1.0244 H         1 <0>         0.1401
     41 H9         -1.9795   -2.5610   -0.0474 H         1 <0>         0.1300
     42 H10        -0.2725   -2.4711   -0.5643 H         1 <0>         0.0795
     43 H11         1.9561    1.4412    1.4702 H         1 <0>         0.1389
     44 H12         2.9976    0.8646    3.6181 H         1 <0>         0.1469
     45 H13         2.3729   -1.2144    4.7799 H         1 <0>         0.1652
     46 H14         0.6919   -2.7162    3.7881 H         1 <0>         0.1444
     47 H15        -1.0403   -3.2373    3.3594 H         1 <0>         0.1033
     48 H16        -2.1868   -3.5865    2.0434 H         1 <0>         0.1024
     49 H17         0.9360   -4.5344    3.6130 H         1 <0>         0.1897
     50 H18         3.3565   -6.7434    2.6981 H         1 <0>         0.1246
     51 H19         1.0605   -8.2809    3.8966 H         1 <0>         0.0888
     52 H20         2.6583   -8.8742    3.3317 H         1 <0>         0.1059
     53 H21         3.2905   -6.5772    7.5803 H         1 <0>         0.0576
     54 H22         4.3678   -5.9534    6.3081 H         1 <0>         0.0560
     55 H23         4.3386   -9.1164    5.0748 H         1 <0>         0.3773
     56 H24         0.7868   -0.2396   -0.5610 H         1 <0>         0.4152
@<TRIPOS>BOND
     1    1    2 1
     2    1   36 1
     3    1   37 1
     4    1   38 1
     5    2    7 1
     6    2    3 1
     7    2   56 1
     8    3    4 1
     9    3   39 1
    10    3   40 1
    11    4    5 1
    12    4   41 1
    13    4   42 1
    14    5    6 1
    15    5   12 1
    16    6   11 ar
    17    6    7 ar
    18    7    8 ar
    19    8    9 ar
    20    8   43 1
    21    9   10 ar
    22    9   44 1
    23   10   11 ar
    24   10   45 1
    25   11   46 1
    26   12   13 1
    27   12   47 1
    28   12   48 1
    29   13   20 1
    30   13   14 2
    31   14   15 1
    32   14   49 1
    33   15   16 am
    34   15   22 1
    35   16   17 2
    36   16   18 am
    37   18   19 1
    38   18   20 am
    39   20   21 2
    40   22   28 1
    41   22   23 1
    42   22   50 1
    43   23   24 1
    44   23   51 1
    45   23   52 1
    46   24   25 1
    47   24   26 1
    48   24   35 1
    49   26   27 1
    50   26   28 1
    51   26   29 1
    52   29   30 1
    53   29   53 1
    54   29   54 1
    55   30   31 1
    56   31   32 2
    57   31   33 1
    58   31   34 1
    59   35   55 1
@<TRIPOS>MOLECULE
CHEMBL1161459__2
   56    59     0     0     0
SMALL
USER_CHARGES

@<TRIPOS>ATOM
      1 C1         -0.0178    1.4608    0.0101 C.3       1 <0>         0.1026
      2 N1          0.0021   -0.0041    0.0020 N.pl3     1 <0>        -0.6437
      3 C2         -1.2533   -0.7698    0.0037 C.3       1 <0>         0.1190
      4 C3         -1.1215   -1.9057    1.0285 C.3       1 <0>         0.1130
      5 N2          0.0550   -2.7124    0.6715 N.pl3     1 <0>        -0.6279
      6 C4          1.2454   -2.0552    0.3281 C.ar      1 <0>         0.1488
      7 C5          1.2187   -0.7015   -0.0133 C.ar      1 <0>         0.1447
      8 C6          2.3919   -0.0519   -0.3602 C.ar      1 <0>        -0.1542
      9 C7          3.5878   -0.7477   -0.3710 C.ar      1 <0>        -0.1250
     10 C8          3.6158   -2.0886   -0.0374 C.ar      1 <0>        -0.1158
     11 C9          2.4467   -2.7447    0.3209 C.ar      1 <0>        -0.1511
     12 C10        -0.0150   -4.1757    0.6751 C.3       1 <0>         0.2074
     13 C11        -0.4414   -4.6615   -0.6862 C.2       1 <0>        -0.3005
     14 C12         0.4806   -5.0371   -1.5983 C.2       1 <0>         0.2055
     15 N3          0.0761   -5.4758   -2.8297 N.am      1 <0>        -0.5376
     16 C13        -1.2316   -5.5358   -3.1403 C.2       1 <0>         0.7016
     17 O1         -1.5689   -5.9283   -4.2405 O.2       1 <0>        -0.5402
     18 N4         -2.1717   -5.1680   -2.2500 N.am      1 <0>        -0.6590
     19 H1         -3.1102   -5.2182   -2.4900 H         1 <0>         0.4289
     20 C14        -1.8143   -4.7357   -1.0238 C.2       1 <0>         0.5628
     21 O2         -2.6644   -4.4076   -0.2159 O.2       1 <0>        -0.5187
     22 C15         1.0764   -5.8833   -3.8195 C.3       1 <0>         0.3044
     23 C16         0.8617   -7.3635   -4.2022 C.3       1 <0>        -0.1848
     24 C17         2.3187   -7.8886   -4.3182 C.3       1 <0>         0.0763
     25 H2          2.3705   -8.9551   -4.0993 H         1 <0>         0.0928
     26 C18         3.0197   -7.0573   -3.2144 C.3       1 <0>         0.0839
     27 H3          2.8674   -7.5190   -2.2388 H         1 <0>         0.0983
     28 O3          2.3896   -5.7672   -3.2593 O.3       1 <0>        -0.3429
     29 C19         4.5149   -6.9311   -3.5136 C.3       1 <0>         0.1466
     30 O4          5.1629   -6.2632   -2.4291 O.3       1 <0>        -0.7570
     31 P1          6.7436   -5.9583   -2.4060 P.3       1 <0>         2.2117
     32 O5          7.5251   -7.2745   -2.6161 O.2       1 <0>        -1.1104
     33 O6          7.0933   -4.9656   -3.5371 O.3       1 <0>        -1.1042
     34 O7          7.1457   -5.3164   -0.9853 O.3       1 <0>        -0.8965
     35 O8          2.8680   -7.6032   -5.6062 O.3       1 <0>        -0.5423
     36 H4          1.0048    1.8381    0.0023 H         1 <0>         0.0741
     37 H5         -0.5450    1.8219   -0.8730 H         1 <0>         0.0455
     38 H6         -0.5280    1.8123    0.9069 H         1 <0>         0.0468
     39 H7         -2.0813   -0.1177    0.2820 H         1 <0>         0.0797
     40 H8         -1.4306   -1.1874   -0.9874 H         1 <0>         0.0529
     41 H9         -0.9915   -1.4873    2.0265 H         1 <0>         0.0571
     42 H10        -2.0157   -2.5286    1.0039 H         1 <0>         0.0965
     43 H11         2.3731    0.9957   -0.6221 H         1 <0>         0.1179
     44 H12         4.5026   -0.2413   -0.6415 H         1 <0>         0.1182
     45 H13         4.5525   -2.6262   -0.0476 H         1 <0>         0.1242
     46 H14         2.4706   -3.7926    0.5814 H         1 <0>         0.1209
     47 H15         0.9657   -4.5857    0.9164 H         1 <0>         0.0885
     48 H16        -0.7392   -4.5030    1.4210 H         1 <0>         0.0894
     49 H17         1.5324   -4.9913   -1.3573 H         1 <0>         0.1861
     50 H18         0.9960   -5.2552   -4.7066 H         1 <0>         0.1229
     51 H19         0.3201   -7.8923   -3.4179 H         1 <0>         0.0916
     52 H20         0.3425   -7.4459   -5.1570 H         1 <0>         0.1081
     53 H21         4.9457   -7.9246   -3.6379 H         1 <0>         0.0724
     54 H22         4.6550   -6.3571   -4.4296 H         1 <0>         0.0735
     55 H23         8.0858   -5.1067   -0.9004 H         1 <0>         0.4145
     56 H24         2.3914   -8.0186   -6.3379 H         1 <0>         0.3827
@<TRIPOS>BOND
     1    1    2 1
     2    1   36 1
     3    1   37 1
     4    1   38 1
     5    2    7 1
     6    2    3 1
     7    3    4 1
     8    3   39 1
     9    3   40 1
    10    4    5 1
    11    4   41 1
    12    4   42 1
    13    5    6 1
    14    5   12 1
    15    6   11 ar
    16    6    7 ar
    17    7    8 ar
    18    8    9 ar
    19    8   43 1
    20    9   10 ar
    21    9   44 1
    22   10   11 ar
    23   10   45 1
    24   11   46 1
    25   12   13 1
    26   12   47 1
    27   12   48 1
    28   13   20 1
    29   13   14 2
    30   14   15 1
    31   14   49 1
    32   15   16 am
    33   15   22 1
    34   16   17 2
    35   16   18 am
    36   18   19 1
    37   18   20 am
    38   20   21 2
    39   22   28 1
    40   22   23 1
    41   22   50 1
    42   23   24 1
    43   23   51 1
    44   23   52 1
    45   24   25 1
    46   24   26 1
    47   24   35 1
    48   26   27 1
    49   26   28 1
    50   26   29 1
    51   29   30 1
    52   29   53 1
    53   29   54 1
    54   30   31 1
    55   31   32 2
    56   31   33 1
    57   31   34 1
    58   34   55 1
    59   35   56 1
@<TRIPOS>MOLECULE
CHEMBL1161459__3
   55    58     0     0     0
SMALL
USER_CHARGES

@<TRIPOS>ATOM
      1 C1         -0.0178    1.4608    0.0101 C.3       1 <0>         0.1010
      2 N1          0.0021   -0.0041    0.0020 N.pl3     1 <0>        -0.6410
      3 C2         -1.2533   -0.7698    0.0037 C.3       1 <0>         0.1139
      4 C3         -1.1215   -1.9057    1.0285 C.3       1 <0>         0.1139
      5 N2          0.0550   -2.7124    0.6715 N.pl3     1 <0>        -0.6270
      6 C4          1.2454   -2.0552    0.3281 C.ar      1 <0>         0.1527
      7 C5          1.2187   -0.7015   -0.0133 C.ar      1 <0>         0.1533
      8 C6          2.3919   -0.0519   -0.3602 C.ar      1 <0>        -0.1529
      9 C7          3.5878   -0.7477   -0.3710 C.ar      1 <0>        -0.1253
     10 C8          3.6158   -2.0886   -0.0374 C.ar      1 <0>        -0.1286
     11 C9          2.4467   -2.7447    0.3209 C.ar      1 <0>        -0.1595
     12 C10        -0.0150   -4.1757    0.6751 C.3       1 <0>         0.2127
     13 C11        -0.4414   -4.6615   -0.6862 C.2       1 <0>        -0.3080
     14 C12         0.4806   -5.0371   -1.5983 C.2       1 <0>         0.2082
     15 N3          0.0761   -5.4758   -2.8297 N.am      1 <0>        -0.5213
     16 C13        -1.2316   -5.5358   -3.1403 C.2       1 <0>         0.6846
     17 O1         -1.5689   -5.9283   -4.2405 O.2       1 <0>        -0.4838
     18 N4         -2.1717   -5.1680   -2.2500 N.am      1 <0>        -0.6605
     19 H1         -3.1102   -5.2182   -2.4900 H         1 <0>         0.4289
     20 C14        -1.8143   -4.7357   -1.0238 C.2       1 <0>         0.5665
     21 O2         -2.6644   -4.4076   -0.2159 O.2       1 <0>        -0.5301
     22 C15         1.0764   -5.8833   -3.8195 C.3       1 <0>         0.2901
     23 C16         0.8952   -7.3733   -4.1851 C.3       1 <0>        -0.1927
     24 C17         1.2068   -7.4293   -5.6974 C.3       1 <0>         0.0837
     25 H2          2.0639   -8.0754   -5.8871 H         1 <0>         0.0765
     26 C18         1.5394   -5.9666   -6.0666 C.3       1 <0>         0.0867
     27 H3          2.6162   -5.8017   -6.0307 H         1 <0>         0.0908
     28 O3          0.8752   -5.1718   -5.0601 O.3       1 <0>        -0.3326
     29 C19         0.9963   -5.6316   -7.4571 C.3       1 <0>         0.1486
     30 O4          1.4136   -4.3160   -7.8273 O.3       1 <0>        -0.7582
     31 P1          1.0218   -3.6346   -9.2324 P.3       1 <0>         2.1320
     32 O5          1.4670   -4.5694  -10.4082 O.2       1 <0>        -1.1909
     33 O6         -0.5288   -3.4199   -9.2943 O.3       1 <0>        -1.1875
     34 O7          1.7461   -2.2515   -9.3620 O.3       1 <0>        -1.1698
     35 O8          0.0661   -7.8858   -6.4270 O.3       1 <0>        -0.5301
     36 H4          1.0048    1.8381    0.0023 H         1 <0>         0.0736
     37 H5         -0.5450    1.8219   -0.8730 H         1 <0>         0.0503
     38 H6         -0.5280    1.8123    0.9069 H         1 <0>         0.0471
     39 H7         -2.0813   -0.1177    0.2820 H         1 <0>         0.0818
     40 H8         -1.4306   -1.1874   -0.9874 H         1 <0>         0.0599
     41 H9         -0.9915   -1.4873    2.0265 H         1 <0>         0.0562
     42 H10        -2.0157   -2.5286    1.0039 H         1 <0>         0.0989
     43 H11         2.3731    0.9957   -0.6221 H         1 <0>         0.1200
     44 H12         4.5026   -0.2413   -0.6415 H         1 <0>         0.1164
     45 H13         4.5525   -2.6262   -0.0476 H         1 <0>         0.1163
     46 H14         2.4706   -3.7926    0.5814 H         1 <0>         0.1192
     47 H15         0.9657   -4.5857    0.9164 H         1 <0>         0.0845
     48 H16        -0.7392   -4.5030    1.4210 H         1 <0>         0.0885
     49 H17         1.5324   -4.9913   -1.3573 H         1 <0>         0.1734
     50 H18         2.0816   -5.7040   -3.4380 H         1 <0>         0.1120
     51 H19         1.5983   -7.9917   -3.6271 H         1 <0>         0.0869
     52 H20        -0.1297   -7.6914   -3.9942 H         1 <0>         0.0964
     53 H21         1.3800   -6.3514   -8.1802 H         1 <0>         0.0531
     54 H22        -0.0927   -5.6767   -7.4425 H         1 <0>         0.0541
     55 H23        -0.2212   -8.7782   -6.1900 H         1 <0>         0.3670
@<TRIPOS>BOND
     1    1    2 1
     2    1   36 1
     3    1   37 1
     4    1   38 1
     5    2    7 1
     6    2    3 1
     7    3    4 1
     8    3   39 1
     9    3   40 1
    10    4    5 1
    11    4   41 1
    12    4   42 1
    13    5    6 1
    14    5   12 1
    15    6   11 ar
    16    6    7 ar
    17    7    8 ar
    18    8    9 ar
    19    8   43 1
    20    9   10 ar
    21    9   44 1
    22   10   11 ar
    23   10   45 1
    24   11   46 1
    25   12   13 1
    26   12   47 1
    27   12   48 1
    28   13   20 1
    29   13   14 2
    30   14   15 1
    31   14   49 1
    32   15   16 am
    33   15   22 1
    34   16   17 2
    35   16   18 am
    36   18   19 1
    37   18   20 am
    38   20   21 2
    39   22   28 1
    40   22   23 1
    41   22   50 1
    42   23   24 1
    43   23   51 1
    44   23   52 1
    45   24   25 1
    46   24   26 1
    47   24   35 1
    48   26   27 1
    49   26   28 1
    50   26   29 1
    51   29   30 1
    52   29   53 1
    53   29   54 1
    54   30   31 1
    55   31   32 2
    56   31   33 1
    57   31   34 1
    58   35   55 1
@<TRIPOS>MOLECULE
CHEMBL1161459__4
   56    59     0     0     0
SMALL
USER_CHARGES

@<TRIPOS>ATOM
      1 C1          0.0245    1.5126    0.1381 C.3       1 <0>        -0.0459
      2 N1          0.1699    0.0515    0.1827 N.4       1 <0>        -0.3053
      3 C2         -1.1427   -0.5642   -0.0223 C.3       1 <0>        -0.0233
      4 C3         -1.0151   -2.0860    0.1345 C.3       1 <0>         0.1013
      5 N2         -0.5825   -2.3411    1.5193 N.pl3     1 <0>        -0.6199
      6 C4          0.3770   -1.4780    2.0666 C.ar      1 <0>         0.2610
      7 C5          0.7311   -0.3114    1.4067 C.ar      1 <0>        -0.1376
      8 C6          1.6765    0.5281    1.9754 C.ar      1 <0>        -0.0552
      9 C7          2.2622    0.2041    3.1834 C.ar      1 <0>        -0.1493
     10 C8          1.9112   -0.9625    3.8372 C.ar      1 <0>        -0.0221
     11 C9          0.9689   -1.8046    3.2802 C.ar      1 <0>        -0.1806
     12 C10        -1.1346   -3.4543    2.2954 C.3       1 <0>         0.2089
     13 C11        -0.3779   -4.7166    1.9713 C.2       1 <0>        -0.3328
     14 C12         0.6493   -5.1177    2.7504 C.2       1 <0>         0.2246
     15 N3          1.3257   -6.2664    2.4417 N.am      1 <0>        -0.5173
     16 C13         0.9771   -6.9997    1.3689 C.2       1 <0>         0.6807
     17 O1          1.5919   -8.0168    1.1127 O.2       1 <0>        -0.4663
     18 N4         -0.0430   -6.6233    0.5755 N.am      1 <0>        -0.6581
     19 H1         -0.2816   -7.1640   -0.1937 H         1 <0>         0.4338
     20 C14        -0.7383   -5.5009    0.8491 C.2       1 <0>         0.5688
     21 O2         -1.6647   -5.1624    0.1347 O.2       1 <0>        -0.5345
     22 C15         2.4402   -6.7017    3.2870 C.3       1 <0>         0.2857
     23 C16         2.1314   -8.0776    3.9177 C.3       1 <0>        -0.1943
     24 C17         3.4935   -8.8072    3.9126 C.3       1 <0>         0.0832
     25 H2          3.8020   -9.0472    4.9301 H         1 <0>         0.0795
     26 C18         4.4640   -7.7856    3.2794 C.3       1 <0>         0.0878
     27 H3          4.9728   -7.2141    4.0557 H         1 <0>         0.0928
     28 O3          3.6228   -6.9195    2.4870 O.3       1 <0>        -0.3338
     29 C19         5.4840   -8.5002    2.3906 C.3       1 <0>         0.1466
     30 O4          6.4409   -7.5546    1.9086 O.3       1 <0>        -0.7588
     31 P1          7.6631   -7.9592    0.9418 P.3       1 <0>         2.1281
     32 O5          8.4963   -9.1077    1.6060 O.2       1 <0>        -1.1877
     33 O6          7.0994   -8.4516   -0.4345 O.3       1 <0>        -1.1859
     34 O7          8.5830   -6.7118    0.7132 O.3       1 <0>        -1.1685
     35 O8          3.4231   -9.9935    3.1190 O.3       1 <0>        -0.5295
     36 H4          1.0111    1.9756    0.1218 H         1 <0>         0.1249
     37 H5         -0.5247    1.7958   -0.7598 H         1 <0>         0.1239
     38 H6         -0.5208    1.8504    1.0194 H         1 <0>         0.1222
     39 H7         -1.8450   -0.1794    0.7172 H         1 <0>         0.1342
     40 H8         -1.5024   -0.3301   -1.0242 H         1 <0>         0.1448
     41 H9         -1.9792   -2.5608   -0.0475 H         1 <0>         0.1349
     42 H10        -0.2721   -2.4709   -0.5641 H         1 <0>         0.0880
     43 H11         1.9563    1.4411    1.4709 H         1 <0>         0.1429
     44 H12         2.9976    0.8644    3.6189 H         1 <0>         0.1437
     45 H13         2.3728   -1.2147    4.7805 H         1 <0>         0.1459
     46 H14         0.6917   -2.7164    3.7883 H         1 <0>         0.1405
     47 H15        -1.0404   -3.2373    3.3595 H         1 <0>         0.0973
     48 H16        -2.1867   -3.5865    2.0433 H         1 <0>         0.1045
     49 H17         0.9360   -4.5344    3.6130 H         1 <0>         0.1725
     50 H18         2.6381   -5.9624    4.0632 H         1 <0>         0.1134
     51 H19         1.7666   -7.9570    4.9377 H         1 <0>         0.0893
     52 H20         1.4051   -8.6206    3.3129 H         1 <0>         0.0970
     53 H21         5.9939   -9.2703    2.9694 H         1 <0>         0.0566
     54 H22         4.9708   -8.9604    1.5462 H         1 <0>         0.0550
     55 H23         2.7837  -10.6440    3.4400 H         1 <0>         0.3698
     56 H24         0.7872   -0.2394   -0.5605 H         1 <0>         0.4224
@<TRIPOS>BOND
     1    1    2 1
     2    1   36 1
     3    1   37 1
     4    1   38 1
     5    2    7 1
     6    2    3 1
     7    2   56 1
     8    3    4 1
     9    3   39 1
    10    3   40 1
    11    4    5 1
    12    4   41 1
    13    4   42 1
    14    5    6 1
    15    5   12 1
    16    6   11 ar
    17    6    7 ar
    18    7    8 ar
    19    8    9 ar
    20    8   43 1
    21    9   10 ar
    22    9   44 1
    23   10   11 ar
    24   10   45 1
    25   11   46 1
    26   12   13 1
    27   12   47 1
    28   12   48 1
    29   13   20 1
    30   13   14 2
    31   14   15 1
    32   14   49 1
    33   15   16 am
    34   15   22 1
    35   16   17 2
    36   16   18 am
    37   18   19 1
    38   18   20 am
    39   20   21 2
    40   22   28 1
    41   22   23 1
    42   22   50 1
    43   23   24 1
    44   23   51 1
    45   23   52 1
    46   24   25 1
    47   24   26 1
    48   24   35 1
    49   26   27 1
    50   26   28 1
    51   26   29 1
    52   29   30 1
    53   29   53 1
    54   29   54 1
    55   30   31 1
    56   31   32 2
    57   31   33 1
    58   31   34 1
    59   35   55 1
@<TRIPOS>MOLECULE
CHEMBL1161459__5
   56    59     0     0     0
SMALL
USER_CHARGES

@<TRIPOS>ATOM
      1 C1         -0.0178    1.4608    0.0101 C.3       1 <0>         0.1001
      2 N1          0.0021   -0.0041    0.0020 N.pl3     1 <0>        -0.6412
      3 C2         -1.2533   -0.7698    0.0037 C.3       1 <0>         0.1150
      4 C3         -1.1215   -1.9057    1.0285 C.3       1 <0>         0.1120
      5 N2          0.0550   -2.7124    0.6715 N.pl3     1 <0>        -0.6267
      6 C4          1.2454   -2.0552    0.3281 C.ar      1 <0>         0.1524
      7 C5          1.2187   -0.7015   -0.0133 C.ar      1 <0>         0.1535
      8 C6          2.3919   -0.0519   -0.3602 C.ar      1 <0>        -0.1540
      9 C7          3.5878   -0.7477   -0.3710 C.ar      1 <0>        -0.1258
     10 C8          3.6158   -2.0886   -0.0374 C.ar      1 <0>        -0.1289
     11 C9          2.4467   -2.7447    0.3209 C.ar      1 <0>        -0.1594
     12 C10        -0.0150   -4.1757    0.6751 C.3       1 <0>         0.2090
     13 C11        -0.4414   -4.6615   -0.6862 C.2       1 <0>        -0.2954
     14 C12         0.4806   -5.0371   -1.5983 C.2       1 <0>         0.1996
     15 N3          0.0761   -5.4758   -2.8297 N.am      1 <0>        -0.5243
     16 C13        -1.2316   -5.5358   -3.1403 C.2       1 <0>         0.6886
     17 O1         -1.5689   -5.9283   -4.2405 O.2       1 <0>        -0.4932
     18 N4         -2.1717   -5.1680   -2.2500 N.am      1 <0>        -0.6606
     19 H1         -3.1102   -5.2182   -2.4900 H         1 <0>         0.4303
     20 C14        -1.8143   -4.7357   -1.0238 C.2       1 <0>         0.5636
     21 O2         -2.6644   -4.4076   -0.2159 O.2       1 <0>        -0.5207
     22 C15         1.0764   -5.8833   -3.8195 C.3       1 <0>         0.2962
     23 C16         0.8952   -7.3733   -4.1851 C.3       1 <0>        -0.1951
     24 C17         1.2068   -7.4293   -5.6974 C.3       1 <0>         0.0848
     25 H2          2.0639   -8.0754   -5.8871 H         1 <0>         0.0815
     26 C18         1.5394   -5.9666   -6.0666 C.3       1 <0>         0.0862
     27 H3          2.6162   -5.8017   -6.0307 H         1 <0>         0.0953
     28 O3          0.8752   -5.1718   -5.0601 O.3       1 <0>        -0.3399
     29 C19         0.9963   -5.6316   -7.4571 C.3       1 <0>         0.1534
     30 O4          1.4136   -4.3160   -7.8273 O.3       1 <0>        -0.7601
     31 P1          1.0218   -3.6346   -9.2324 P.3       1 <0>         2.2122
     32 O5          1.4609   -4.5564  -10.3919 O.2       1 <0>        -1.1096
     33 O6         -0.5074   -3.4229   -9.2935 O.3       1 <0>        -1.1055
     34 O7          1.7661   -2.2132   -9.3655 O.3       1 <0>        -0.8976
     35 O8          0.0661   -7.8858   -6.4270 O.3       1 <0>        -0.5371
     36 H4          1.0048    1.8381    0.0023 H         1 <0>         0.0739
     37 H5         -0.5450    1.8219   -0.8730 H         1 <0>         0.0498
     38 H6         -0.5280    1.8123    0.9069 H         1 <0>         0.0493
     39 H7         -2.0813   -0.1177    0.2820 H         1 <0>         0.0832
     40 H8         -1.4306   -1.1874   -0.9874 H         1 <0>         0.0579
     41 H9         -0.9915   -1.4873    2.0265 H         1 <0>         0.0587
     42 H10        -2.0157   -2.5286    1.0039 H         1 <0>         0.0995
     43 H11         2.3731    0.9957   -0.6221 H         1 <0>         0.1200
     44 H12         4.5026   -0.2413   -0.6415 H         1 <0>         0.1164
     45 H13         4.5525   -2.6262   -0.0476 H         1 <0>         0.1167
     46 H14         2.4706   -3.7926    0.5814 H         1 <0>         0.1197
     47 H15         0.9657   -4.5857    0.9164 H         1 <0>         0.0865
     48 H16        -0.7392   -4.5030    1.4210 H         1 <0>         0.0910
     49 H17         1.5324   -4.9913   -1.3573 H         1 <0>         0.1748
     50 H18         2.0816   -5.7040   -3.4380 H         1 <0>         0.1151
     51 H19         1.5983   -7.9917   -3.6271 H         1 <0>         0.0922
     52 H20        -0.1297   -7.6914   -3.9942 H         1 <0>         0.1003
     53 H21         1.3800   -6.3514   -8.1802 H         1 <0>         0.0722
     54 H22        -0.0927   -5.6767   -7.4425 H         1 <0>         0.0736
     55 H23         1.5756   -1.7451  -10.1900 H         1 <0>         0.4138
     56 H24        -0.2212   -8.7782   -6.1900 H         1 <0>         0.3764
@<TRIPOS>BOND
     1    1    2 1
     2    1   36 1
     3    1   37 1
     4    1   38 1
     5    2    7 1
     6    2    3 1
     7    3    4 1
     8    3   39 1
     9    3   40 1
    10    4    5 1
    11    4   41 1
    12    4   42 1
    13    5    6 1
    14    5   12 1
    15    6   11 ar
    16    6    7 ar
    17    7    8 ar
    18    8    9 ar
    19    8   43 1
    20    9   10 ar
    21    9   44 1
    22   10   11 ar
    23   10   45 1
    24   11   46 1
    25   12   13 1
    26   12   47 1
    27   12   48 1
    28   13   20 1
    29   13   14 2
    30   14   15 1
    31   14   49 1
    32   15   16 am
    33   15   22 1
    34   16   17 2
    35   16   18 am
    36   18   19 1
    37   18   20 am
    38   20   21 2
    39   22   28 1
    40   22   23 1
    41   22   50 1
    42   23   24 1
    43   23   51 1
    44   23   52 1
    45   24   25 1
    46   24   26 1
    47   24   35 1
    48   26   27 1
    49   26   28 1
    50   26   29 1
    51   29   30 1
    52   29   53 1
    53   29   54 1
    54   30   31 1
    55   31   32 2
    56   31   33 1
    57   31   34 1
    58   34   55 1
    59   35   56 1
@<TRIPOS>MOLECULE
CHEMBL1161459__6
   56    59     0     0     0
SMALL
USER_CHARGES

@<TRIPOS>ATOM
      1 C1         -0.0178    1.4608    0.0101 C.3       1 <0>         0.1026
      2 N1          0.0021   -0.0041    0.0020 N.pl3     1 <0>        -0.6437
      3 C2         -1.2533   -0.7698    0.0037 C.3       1 <0>         0.1190
      4 C3         -1.1215   -1.9057    1.0285 C.3       1 <0>         0.1130
      5 N2          0.0550   -2.7124    0.6715 N.pl3     1 <0>        -0.6279
      6 C4          1.2454   -2.0552    0.3281 C.ar      1 <0>         0.1488
      7 C5          1.2187   -0.7015   -0.0133 C.ar      1 <0>         0.1447
      8 C6          2.3919   -0.0519   -0.3602 C.ar      1 <0>        -0.1542
      9 C7          3.5878   -0.7477   -0.3710 C.ar      1 <0>        -0.1250
     10 C8          3.6158   -2.0886   -0.0374 C.ar      1 <0>        -0.1158
     11 C9          2.4467   -2.7447    0.3209 C.ar      1 <0>        -0.1511
     12 C10        -0.0150   -4.1757    0.6751 C.3       1 <0>         0.2074
     13 C11        -0.4414   -4.6615   -0.6862 C.2       1 <0>        -0.3005
     14 C12         0.4806   -5.0371   -1.5983 C.2       1 <0>         0.2055
     15 N3          0.0761   -5.4758   -2.8297 N.am      1 <0>        -0.5376
     16 C13        -1.2316   -5.5358   -3.1403 C.2       1 <0>         0.7016
     17 O1         -1.5689   -5.9283   -4.2405 O.2       1 <0>        -0.5402
     18 N4         -2.1717   -5.1680   -2.2500 N.am      1 <0>        -0.6590
     19 H1         -3.1102   -5.2182   -2.4900 H         1 <0>         0.4289
     20 C14        -1.8143   -4.7357   -1.0238 C.2       1 <0>         0.5628
     21 O2         -2.6644   -4.4076   -0.2159 O.2       1 <0>        -0.5187
     22 C15         1.0764   -5.8833   -3.8195 C.3       1 <0>         0.3044
     23 C16         0.8617   -7.3635   -4.2022 C.3       1 <0>        -0.1848
     24 C17         2.3187   -7.8886   -4.3182 C.3       1 <0>         0.0763
     25 H2          2.3705   -8.9551   -4.0993 H         1 <0>         0.0928
     26 C18         3.0197   -7.0573   -3.2144 C.3       1 <0>         0.0839
     27 H3          2.8674   -7.5190   -2.2388 H         1 <0>         0.0983
     28 O3          2.3896   -5.7672   -3.2593 O.3       1 <0>        -0.3429
     29 C19         4.5149   -6.9311   -3.5136 C.3       1 <0>         0.1466
     30 O4          5.1629   -6.2632   -2.4291 O.3       1 <0>        -0.7570
     31 P1          6.7436   -5.9583   -2.4060 P.3       1 <0>         2.2117
     32 O5          7.5251   -7.2745   -2.6161 O.2       1 <0>        -1.1104
     33 O6          7.0933   -4.9656   -3.5371 O.3       1 <0>        -1.1042
     34 O7          7.1457   -5.3164   -0.9853 O.3       1 <0>        -0.8965
     35 O8          2.8680   -7.6032   -5.6062 O.3       1 <0>        -0.5423
     36 H4          1.0048    1.8381    0.0023 H         1 <0>         0.0741
     37 H5         -0.5450    1.8219   -0.8730 H         1 <0>         0.0455
     38 H6         -0.5280    1.8123    0.9069 H         1 <0>         0.0468
     39 H7         -2.0813   -0.1177    0.2820 H         1 <0>         0.0797
     40 H8         -1.4306   -1.1874   -0.9874 H         1 <0>         0.0529
     41 H9         -0.9915   -1.4873    2.0265 H         1 <0>         0.0571
     42 H10        -2.0157   -2.5286    1.0039 H         1 <0>         0.0965
     43 H11         2.3731    0.9957   -0.6221 H         1 <0>         0.1179
     44 H12         4.5026   -0.2413   -0.6415 H         1 <0>         0.1182
     45 H13         4.5525   -2.6262   -0.0476 H         1 <0>         0.1242
     46 H14         2.4706   -3.7926    0.5814 H         1 <0>         0.1209
     47 H15         0.9657   -4.5857    0.9164 H         1 <0>         0.0885
     48 H16        -0.7392   -4.5030    1.4210 H         1 <0>         0.0894
     49 H17         1.5324   -4.9913   -1.3573 H         1 <0>         0.1861
     50 H18         0.9960   -5.2552   -4.7066 H         1 <0>         0.1229
     51 H19         0.3201   -7.8923   -3.4179 H         1 <0>         0.0916
     52 H20         0.3425   -7.4459   -5.1570 H         1 <0>         0.1081
     53 H21         4.9457   -7.9246   -3.6379 H         1 <0>         0.0724
     54 H22         4.6550   -6.3571   -4.4296 H         1 <0>         0.0735
     55 H23         8.0858   -5.1067   -0.9004 H         1 <0>         0.4145
     56 H24         2.3914   -8.0186   -6.3379 H         1 <0>         0.3827
@<TRIPOS>BOND
     1    1    2 1
     2    1   36 1
     3    1   37 1
     4    1   38 1
     5    2    7 1
     6    2    3 1
     7    3    4 1
     8    3   39 1
     9    3   40 1
    10    4    5 1
    11    4   41 1
    12    4   42 1
    13    5    6 1
    14    5   12 1
    15    6   11 ar
    16    6    7 ar
    17    7    8 ar
    18    8    9 ar
    19    8   43 1
    20    9   10 ar
    21    9   44 1
    22   10   11 ar
    23   10   45 1
    24   11   46 1
    25   12   13 1
    26   12   47 1
    27   12   48 1
    28   13   20 1
    29   13   14 2
    30   14   15 1
    31   14   49 1
    32   15   16 am
    33   15   22 1
    34   16   17 2
    35   16   18 am
    36   18   19 1
    37   18   20 am
    38   20   21 2
    39   22   28 1
    40   22   23 1
    41   22   50 1
    42   23   24 1
    43   23   51 1
    44   23   52 1
    45   24   25 1
    46   24   26 1
    47   24   35 1
    48   26   27 1
    49   26   28 1
    50   26   29 1
    51   29   30 1
    52   29   53 1
    53   29   54 1
    54   30   31 1
    55   31   32 2
    56   31   33 1
    57   31   34 1
    58   34   55 1
    59   35   56 1
@<TRIPOS>MOLECULE
CHEMBL290815
   57    59     0     0     0
SMALL
USER_CHARGES

@<TRIPOS>ATOM
      1 C1         -0.0169    1.3937    0.0097 C.ar      1 <0>        -0.0181
      2 C2          1.1662    2.0965    0.0022 C.ar      1 <0>        -0.2060
      3 C3          2.3811    1.4169   -0.0131 C.ar      1 <0>         0.2220
      4 C4          2.4034    0.0249   -0.0208 C.ar      1 <0>        -0.2021
      5 C5          1.2237   -0.6836   -0.0138 C.ar      1 <0>        -0.0360
      6 C6          0.0021   -0.0041    0.0020 C.ar      1 <0>        -0.1658
      7 C7         -1.2644   -0.7605    0.0105 C.2       1 <0>         0.5497
      8 O1         -2.3263   -0.1682    0.0243 O.2       1 <0>        -0.5607
      9 N1         -1.2445   -2.1081    0.0031 N.am      1 <0>        -0.6792
     10 C8         -2.5022   -2.8593    0.0116 C.3       1 <0>         0.0747
     11 C9         -2.2637   -4.2464    0.6114 C.3       1 <0>        -0.0824
     12 C10        -1.8670   -4.1047    2.0823 C.3       1 <0>        -0.1767
     13 C11        -1.6321   -5.4710    2.6731 C.2       1 <0>         0.4911
     14 O2         -1.7693   -6.4659    1.9818 O.co2     1 <0>        -0.6979
     15 O3         -1.3049   -5.5815    3.8424 O.co2     1 <0>        -0.7203
     16 C12        -3.0110   -3.0030   -1.3996 C.2       1 <0>         0.4982
     17 O4         -2.2242   -3.0459   -2.3300 O.co2     1 <0>        -0.6989
     18 O5         -4.2095   -3.0763   -1.6111 O.co2     1 <0>        -0.7029
     19 N2          3.5749    2.1299   -0.0211 N.pl3     1 <0>        -0.7474
     20 C13         4.8542    1.4162   -0.0371 C.3       1 <0>         0.1226
     21 C14         6.0023    2.4276   -0.0432 C.3       1 <0>        -0.1349
     22 C15         7.3384    1.6823   -0.0600 C.3       1 <0>         0.1624
     23 C16         8.4959    2.6872    0.0142 C.3       1 <0>        -0.1313
     24 C17         9.8161    1.9179    0.0506 C.3       1 <0>        -0.0548
     25 C18         9.8784    0.9198   -1.0752 C.2       1 <0>         0.1075
     26 C19         8.7503    0.4718   -1.6954 C.2       1 <0>         0.0160
     27 C20         8.8649   -0.4712   -2.7396 C.2       1 <0>         0.5335
     28 N3         10.0959   -0.8975   -3.0948 N.am      1 <0>        -0.6440
     29 C21        11.1887   -0.4119   -2.4443 C.2       1 <0>         0.5917
     30 N4         11.0727    0.4646   -1.4716 N.2       1 <0>        -0.5604
     31 N5         12.4374   -0.8464   -2.8118 N.pl3     1 <0>        -0.8322
     32 O6          7.8715   -0.8929   -3.3094 O.2       1 <0>        -0.5294
     33 N6          7.4769    0.9354   -1.3185 N.pl3     1 <0>        -0.7271
     34 H1         -0.9590    1.9215    0.0260 H         1 <0>         0.1328
     35 H2          1.1522    3.1764    0.0078 H         1 <0>         0.1195
     36 H3          3.3474   -0.4995   -0.0326 H         1 <0>         0.1216
     37 H4          1.2416   -1.7634   -0.0204 H         1 <0>         0.1282
     38 H5         -0.3974   -2.5806   -0.0078 H         1 <0>         0.3902
     39 H6         -3.2399   -2.3261    0.6112 H         1 <0>         0.0769
     40 H7         -3.1771   -4.8365    0.5367 H         1 <0>         0.0716
     41 H8         -1.4631   -4.7456    0.0656 H         1 <0>         0.0596
     42 H9         -0.9536   -3.5146    2.1570 H         1 <0>         0.0515
     43 H10        -2.6677   -3.6056    2.6281 H         1 <0>         0.0525
     44 H11         3.5606    3.0997   -0.0161 H         1 <0>         0.3965
     45 H12         4.9299    0.7860    0.8490 H         1 <0>         0.0632
     46 H13         4.9126    0.7950   -0.9309 H         1 <0>         0.0603
     47 H14         5.9267    3.0578   -0.9294 H         1 <0>         0.0768
     48 H15         5.9440    3.0488    0.8505 H         1 <0>         0.0861
     49 H16         7.3891    0.9956    0.7850 H         1 <0>         0.0723
     50 H17         8.4744    3.3344   -0.8627 H         1 <0>         0.0724
     51 H18         8.3992    3.2896    0.9174 H         1 <0>         0.0836
     52 H19        10.6441    2.6202   -0.0454 H         1 <0>         0.0865
     53 H20         9.8997    1.3924    1.0018 H         1 <0>         0.0818
     54 H21        12.5345   -1.4930   -3.5283 H         1 <0>         0.4100
     55 H22        13.2229   -0.5070   -2.3550 H         1 <0>         0.4245
     56 H23         6.7037    0.7649   -1.8789 H         1 <0>         0.4076
     57 H24        10.2008   -1.5458   -3.8086 H         1 <0>         0.4130
@<TRIPOS>BOND
     1    1    6 ar
     2    1    2 ar
     3    1   34 1
     4    2    3 ar
     5    2   35 1
     6    3    4 ar
     7    3   19 1
     8    4    5 ar
     9    4   36 1
    10    5    6 ar
    11    5   37 1
    12    6    7 1
    13    7    8 2
    14    7    9 am
    15    9   10 1
    16    9   38 1
    17   10   11 1
    18   10   16 1
    19   10   39 1
    20   11   12 1
    21   11   40 1
    22   11   41 1
    23   12   13 1
    24   12   42 1
    25   12   43 1
    26   13   14 2
    27   13   15 1
    28   16   17 2
    29   16   18 1
    30   19   20 1
    31   19   44 1
    32   20   21 1
    33   20   45 1
    34   20   46 1
    35   21   22 1
    36   21   47 1
    37   21   48 1
    38   22   33 1
    39   22   23 1
    40   22   49 1
    41   23   24 1
    42   23   50 1
    43   23   51 1
    44   24   25 1
    45   24   52 1
    46   24   53 1
    47   25   30 1
    48   25   26 2
    49   26   27 1
    50   26   33 1
    51   27   28 am
    52   27   32 2
    53   28   29 1
    54   28   57 1
    55   29   30 2
    56   29   31 1
    57   31   54 1
    58   31   55 1
    59   33   56 1
@<TRIPOS>MOLECULE
CHEMBL290815__1
   57    59     0     0     0
SMALL
USER_CHARGES

@<TRIPOS>ATOM
      1 C1         -0.0169    1.3937    0.0097 C.ar      1 <0>        -0.0182
      2 C2          1.1662    2.0965    0.0022 C.ar      1 <0>        -0.2060
      3 C3          2.3811    1.4169   -0.0131 C.ar      1 <0>         0.2220
      4 C4          2.4034    0.0249   -0.0208 C.ar      1 <0>        -0.2021
      5 C5          1.2237   -0.6836   -0.0138 C.ar      1 <0>        -0.0361
      6 C6          0.0021   -0.0041    0.0020 C.ar      1 <0>        -0.1658
      7 C7         -1.2644   -0.7605    0.0105 C.2       1 <0>         0.5497
      8 O1         -2.3263   -0.1682    0.0243 O.2       1 <0>        -0.5607
      9 N1         -1.2445   -2.1081    0.0031 N.am      1 <0>        -0.6792
     10 C8         -2.5022   -2.8593    0.0116 C.3       1 <0>         0.0747
     11 C9         -2.2637   -4.2464    0.6114 C.3       1 <0>        -0.0822
     12 C10        -1.8670   -4.1047    2.0823 C.3       1 <0>        -0.1771
     13 C11        -1.6321   -5.4710    2.6731 C.2       1 <0>         0.4912
     14 O2         -1.7693   -6.4659    1.9818 O.co2     1 <0>        -0.6982
     15 O3         -1.3049   -5.5815    3.8424 O.co2     1 <0>        -0.7200
     16 C12        -3.0110   -3.0030   -1.3996 C.2       1 <0>         0.4984
     17 O4         -2.2242   -3.0459   -2.3300 O.co2     1 <0>        -0.6992
     18 O5         -4.2095   -3.0763   -1.6111 O.co2     1 <0>        -0.7028
     19 N2          3.5749    2.1299   -0.0211 N.pl3     1 <0>        -0.7474
     20 C13         4.8542    1.4162   -0.0371 C.3       1 <0>         0.1226
     21 C14         6.0023    2.4276   -0.0432 C.3       1 <0>        -0.1349
     22 C15         7.3384    1.6823   -0.0600 C.3       1 <0>         0.1626
     23 C16         8.4943    2.6880   -0.1465 C.3       1 <0>        -0.1314
     24 C17         9.8135    1.9193   -0.2164 C.3       1 <0>        -0.0546
     25 C18         9.8976    0.9099    0.8979 C.2       1 <0>         0.1071
     26 C19         8.7817    0.4556    1.5353 C.2       1 <0>         0.0161
     27 C20         8.9165   -0.4979    2.5675 C.2       1 <0>         0.5333
     28 N3         10.1542   -0.9276    2.8944 N.am      1 <0>        -0.6442
     29 C21        11.2342   -0.4354    2.2277 C.2       1 <0>         0.5919
     30 N4         11.0994    0.4508    1.2663 N.2       1 <0>        -0.5608
     31 N5         12.4898   -0.8735    2.5664 N.pl3     1 <0>        -0.8323
     32 O6          7.9345   -0.9248    3.1529 O.2       1 <0>        -0.5284
     33 N6          7.5013    0.9227    1.1880 N.pl3     1 <0>        -0.7272
     34 H1         -0.9590    1.9215    0.0260 H         1 <0>         0.1329
     35 H2          1.1522    3.1764    0.0078 H         1 <0>         0.1195
     36 H3          3.3474   -0.4995   -0.0326 H         1 <0>         0.1215
     37 H4          1.2416   -1.7634   -0.0204 H         1 <0>         0.1281
     38 H5         -0.3974   -2.5806   -0.0078 H         1 <0>         0.3902
     39 H6         -3.2399   -2.3261    0.6112 H         1 <0>         0.0769
     40 H7         -3.1771   -4.8365    0.5367 H         1 <0>         0.0716
     41 H8         -1.4631   -4.7456    0.0656 H         1 <0>         0.0596
     42 H9         -0.9536   -3.5146    2.1570 H         1 <0>         0.0516
     43 H10        -2.6677   -3.6056    2.6281 H         1 <0>         0.0525
     44 H11         3.5606    3.0997   -0.0161 H         1 <0>         0.3965
     45 H12         4.9299    0.7860    0.8490 H         1 <0>         0.0605
     46 H13         4.9126    0.7950   -0.9309 H         1 <0>         0.0630
     47 H14         5.9267    3.0578   -0.9294 H         1 <0>         0.0861
     48 H15         5.9440    3.0488    0.8505 H         1 <0>         0.0769
     49 H16         7.3726    1.0041   -0.9126 H         1 <0>         0.0721
     50 H17         8.3802    3.2995   -1.0416 H         1 <0>         0.0834
     51 H18         8.4900    3.3263    0.7370 H         1 <0>         0.0725
     52 H19         9.8785    1.4033   -1.1744 H         1 <0>         0.0815
     53 H20        10.6433    2.6206   -0.1295 H         1 <0>         0.0864
     54 H21        12.6008   -1.5272    3.2743 H         1 <0>         0.4100
     55 H22        13.2663   -0.5294    2.0979 H         1 <0>         0.4244
     56 H23         6.7392    0.7466    1.7616 H         1 <0>         0.4077
     57 H24        10.2729   -1.5831    3.5995 H         1 <0>         0.4132
@<TRIPOS>BOND
     1    1    6 ar
     2    1    2 ar
     3    1   34 1
     4    2    3 ar
     5    2   35 1
     6    3    4 ar
     7    3   19 1
     8    4    5 ar
     9    4   36 1
    10    5    6 ar
    11    5   37 1
    12    6    7 1
    13    7    8 2
    14    7    9 am
    15    9   10 1
    16    9   38 1
    17   10   11 1
    18   10   16 1
    19   10   39 1
    20   11   12 1
    21   11   40 1
    22   11   41 1
    23   12   13 1
    24   12   42 1
    25   12   43 1
    26   13   14 2
    27   13   15 1
    28   16   17 2
    29   16   18 1
    30   19   20 1
    31   19   44 1
    32   20   21 1
    33   20   45 1
    34   20   46 1
    35   21   22 1
    36   21   47 1
    37   21   48 1
    38   22   33 1
    39   22   23 1
    40   22   49 1
    41   23   24 1
    42   23   50 1
    43   23   51 1
    44   24   25 1
    45   24   52 1
    46   24   53 1
    47   25   30 1
    48   25   26 2
    49   26   27 1
    50   26   33 1
    51   27   28 am
    52   27   32 2
    53   28   29 1
    54   28   57 1
    55   29   30 2
    56   29   31 1
    57   31   54 1
    58   31   55 1
    59   33   56 1
@<TRIPOS>MOLECULE
CHEMBL290815__2
   57    59     0     0     0
SMALL
USER_CHARGES

@<TRIPOS>ATOM
      1 C1         -0.0169    1.3937    0.0097 C.ar      1 <0>        -0.0185
      2 C2          1.1662    2.0965    0.0022 C.ar      1 <0>        -0.2057
      3 C3          2.3811    1.4169   -0.0131 C.ar      1 <0>         0.2209
      4 C4          2.4034    0.0249   -0.0208 C.ar      1 <0>        -0.2021
      5 C5          1.2237   -0.6836   -0.0138 C.ar      1 <0>        -0.0371
      6 C6          0.0021   -0.0041    0.0020 C.ar      1 <0>        -0.1631
      7 C7         -1.2644   -0.7605    0.0105 C.2       1 <0>         0.5565
      8 O1         -2.3263   -0.1682    0.0243 O.2       1 <0>        -0.5621
      9 N1         -1.2445   -2.1081    0.0031 N.am      1 <0>        -0.6796
     10 C8         -2.5022   -2.8593    0.0116 C.3       1 <0>         0.0736
     11 C9         -2.2758   -4.2399   -0.6078 C.3       1 <0>        -0.0802
     12 C10        -1.9084   -4.0824   -2.0846 C.3       1 <0>        -0.1777
     13 C11        -1.6854   -5.4422   -2.6946 C.2       1 <0>         0.4910
     14 O2         -1.8089   -6.4445   -2.0115 O.co2     1 <0>        -0.6977
     15 O3         -1.3815   -5.5401   -3.8713 O.co2     1 <0>        -0.7207
     16 C12        -2.9829   -3.0182    1.4310 C.2       1 <0>         0.4956
     17 O4         -2.3350   -2.5475    2.3503 O.co2     1 <0>        -0.6970
     18 O5         -4.0198   -3.6173    1.6600 O.co2     1 <0>        -0.7018
     19 N2          3.5749    2.1299   -0.0211 N.pl3     1 <0>        -0.7477
     20 C13         4.8542    1.4162   -0.0371 C.3       1 <0>         0.1229
     21 C14         6.0023    2.4276   -0.0432 C.3       1 <0>        -0.1349
     22 C15         7.3384    1.6823   -0.0600 C.3       1 <0>         0.1626
     23 C16         8.4959    2.6872    0.0142 C.3       1 <0>        -0.1314
     24 C17         9.8161    1.9179    0.0506 C.3       1 <0>        -0.0545
     25 C18         9.8784    0.9198   -1.0752 C.2       1 <0>         0.1070
     26 C19         8.7503    0.4718   -1.6954 C.2       1 <0>         0.0161
     27 C20         8.8649   -0.4712   -2.7396 C.2       1 <0>         0.5333
     28 N3         10.0959   -0.8975   -3.0948 N.am      1 <0>        -0.6441
     29 C21        11.1887   -0.4119   -2.4443 C.2       1 <0>         0.5918
     30 N4         11.0727    0.4646   -1.4716 N.2       1 <0>        -0.5608
     31 N5         12.4374   -0.8464   -2.8118 N.pl3     1 <0>        -0.8323
     32 O6          7.8715   -0.8929   -3.3094 O.2       1 <0>        -0.5284
     33 N6          7.4769    0.9354   -1.3185 N.pl3     1 <0>        -0.7271
     34 H1         -0.9590    1.9215    0.0260 H         1 <0>         0.1326
     35 H2          1.1522    3.1764    0.0078 H         1 <0>         0.1191
     36 H3          3.3474   -0.4995   -0.0326 H         1 <0>         0.1210
     37 H4          1.2416   -1.7634   -0.0204 H         1 <0>         0.1272
     38 H5         -0.3974   -2.5806   -0.0078 H         1 <0>         0.3880
     39 H6         -3.2516   -2.3197   -0.5676 H         1 <0>         0.0769
     40 H7         -1.4645   -4.7448   -0.0833 H         1 <0>         0.0543
     41 H8         -3.1876   -4.8309   -0.5212 H         1 <0>         0.0782
     42 H9         -2.7197   -3.5775   -2.6090 H         1 <0>         0.0520
     43 H10        -0.9966   -3.4914   -2.1711 H         1 <0>         0.0506
     44 H11         3.5606    3.0997   -0.0161 H         1 <0>         0.3963
     45 H12         4.9299    0.7860    0.8490 H         1 <0>         0.0627
     46 H13         4.9126    0.7950   -0.9309 H         1 <0>         0.0603
     47 H14         5.9267    3.0578   -0.9294 H         1 <0>         0.0768
     48 H15         5.9440    3.0488    0.8505 H         1 <0>         0.0860
     49 H16         7.3891    0.9956    0.7850 H         1 <0>         0.0720
     50 H17         8.4744    3.3344   -0.8627 H         1 <0>         0.0724
     51 H18         8.3992    3.2896    0.9174 H         1 <0>         0.0834
     52 H19        10.6441    2.6202   -0.0454 H         1 <0>         0.0864
     53 H20         9.8997    1.3924    1.0018 H         1 <0>         0.0815
     54 H21        12.5345   -1.4930   -3.5283 H         1 <0>         0.4100
     55 H22        13.2229   -0.5070   -2.3550 H         1 <0>         0.4244
     56 H23         6.7037    0.7649   -1.8789 H         1 <0>         0.4077
     57 H24        10.2008   -1.5458   -3.8086 H         1 <0>         0.4132
@<TRIPOS>BOND
     1    1    6 ar
     2    1    2 ar
     3    1   34 1
     4    2    3 ar
     5    2   35 1
     6    3    4 ar
     7    3   19 1
     8    4    5 ar
     9    4   36 1
    10    5    6 ar
    11    5   37 1
    12    6    7 1
    13    7    8 2
    14    7    9 am
    15    9   10 1
    16    9   38 1
    17   10   11 1
    18   10   16 1
    19   10   39 1
    20   11   12 1
    21   11   40 1
    22   11   41 1
    23   12   13 1
    24   12   42 1
    25   12   43 1
    26   13   14 2
    27   13   15 1
    28   16   17 2
    29   16   18 1
    30   19   20 1
    31   19   44 1
    32   20   21 1
    33   20   45 1
    34   20   46 1
    35   21   22 1
    36   21   47 1
    37   21   48 1
    38   22   33 1
    39   22   23 1
    40   22   49 1
    41   23   24 1
    42   23   50 1
    43   23   51 1
    44   24   25 1
    45   24   52 1
    46   24   53 1
    47   25   30 1
    48   25   26 2
    49   26   27 1
    50   26   33 1
    51   27   28 am
    52   27   32 2
    53   28   29 1
    54   28   57 1
    55   29   30 2
    56   29   31 1
    57   31   54 1
    58   31   55 1
    59   33   56 1
@<TRIPOS>MOLECULE
CHEMBL290815__3
   57    59     0     0     0
SMALL
USER_CHARGES

@<TRIPOS>ATOM
      1 C1         -0.0169    1.3937    0.0097 C.ar      1 <0>        -0.0186
      2 C2          1.1662    2.0965    0.0022 C.ar      1 <0>        -0.2057
      3 C3          2.3811    1.4169   -0.0131 C.ar      1 <0>         0.2209
      4 C4          2.4034    0.0249   -0.0208 C.ar      1 <0>        -0.2021
      5 C5          1.2237   -0.6836   -0.0138 C.ar      1 <0>        -0.0371
      6 C6          0.0021   -0.0041    0.0020 C.ar      1 <0>        -0.1631
      7 C7         -1.2644   -0.7605    0.0105 C.2       1 <0>         0.5565
      8 O1         -2.3263   -0.1682    0.0243 O.2       1 <0>        -0.5621
      9 N1         -1.2445   -2.1081    0.0031 N.am      1 <0>        -0.6796
     10 C8         -2.5022   -2.8593    0.0116 C.3       1 <0>         0.0736
     11 C9         -2.2758   -4.2399   -0.6078 C.3       1 <0>        -0.0804
     12 C10        -1.9084   -4.0824   -2.0846 C.3       1 <0>        -0.1774
     13 C11        -1.6854   -5.4422   -2.6946 C.2       1 <0>         0.4909
     14 O2         -1.8089   -6.4445   -2.0115 O.co2     1 <0>        -0.6974
     15 O3         -1.3815   -5.5401   -3.8713 O.co2     1 <0>        -0.7210
     16 C12        -2.9829   -3.0182    1.4310 C.2       1 <0>         0.4954
     17 O4         -2.3350   -2.5475    2.3503 O.co2     1 <0>        -0.6967
     18 O5         -4.0198   -3.6173    1.6600 O.co2     1 <0>        -0.7020
     19 N2          3.5749    2.1299   -0.0211 N.pl3     1 <0>        -0.7477
     20 C13         4.8542    1.4162   -0.0371 C.3       1 <0>         0.1228
     21 C14         6.0023    2.4276   -0.0432 C.3       1 <0>        -0.1349
     22 C15         7.3384    1.6823   -0.0600 C.3       1 <0>         0.1624
     23 C16         8.4943    2.6880   -0.1465 C.3       1 <0>        -0.1313
     24 C17         9.8135    1.9193   -0.2164 C.3       1 <0>        -0.0548
     25 C18         9.8976    0.9099    0.8979 C.2       1 <0>         0.1073
     26 C19         8.7817    0.4556    1.5353 C.2       1 <0>         0.0162
     27 C20         8.9165   -0.4979    2.5675 C.2       1 <0>         0.5335
     28 N3         10.1542   -0.9276    2.8944 N.am      1 <0>        -0.6441
     29 C21        11.2342   -0.4354    2.2277 C.2       1 <0>         0.5916
     30 N4         11.0994    0.4508    1.2663 N.2       1 <0>        -0.5603
     31 N5         12.4898   -0.8735    2.5664 N.pl3     1 <0>        -0.8323
     32 O6          7.9345   -0.9248    3.1529 O.2       1 <0>        -0.5294
     33 N6          7.5013    0.9227    1.1880 N.pl3     1 <0>        -0.7271
     34 H1         -0.9590    1.9215    0.0260 H         1 <0>         0.1326
     35 H2          1.1522    3.1764    0.0078 H         1 <0>         0.1191
     36 H3          3.3474   -0.4995   -0.0326 H         1 <0>         0.1210
     37 H4          1.2416   -1.7634   -0.0204 H         1 <0>         0.1272
     38 H5         -0.3974   -2.5806   -0.0078 H         1 <0>         0.3880
     39 H6         -3.2516   -2.3197   -0.5676 H         1 <0>         0.0770
     40 H7         -1.4645   -4.7448   -0.0833 H         1 <0>         0.0544
     41 H8         -3.1876   -4.8309   -0.5212 H         1 <0>         0.0782
     42 H9         -2.7197   -3.5775   -2.6090 H         1 <0>         0.0520
     43 H10        -0.9966   -3.4914   -2.1711 H         1 <0>         0.0505
     44 H11         3.5606    3.0997   -0.0161 H         1 <0>         0.3963
     45 H12         4.9299    0.7860    0.8490 H         1 <0>         0.0601
     46 H13         4.9126    0.7950   -0.9309 H         1 <0>         0.0630
     47 H14         5.9267    3.0578   -0.9294 H         1 <0>         0.0861
     48 H15         5.9440    3.0488    0.8505 H         1 <0>         0.0768
     49 H16         7.3726    1.0041   -0.9126 H         1 <0>         0.0723
     50 H17         8.3802    3.2995   -1.0416 H         1 <0>         0.0836
     51 H18         8.4900    3.3263    0.7370 H         1 <0>         0.0724
     52 H19         9.8785    1.4033   -1.1744 H         1 <0>         0.0818
     53 H20        10.6433    2.6206   -0.1295 H         1 <0>         0.0865
     54 H21        12.6008   -1.5272    3.2743 H         1 <0>         0.4099
     55 H22        13.2663   -0.5294    2.0979 H         1 <0>         0.4244
     56 H23         6.7392    0.7466    1.7616 H         1 <0>         0.4076
     57 H24        10.2729   -1.5831    3.5995 H         1 <0>         0.4130
@<TRIPOS>BOND
     1    1    6 ar
     2    1    2 ar
     3    1   34 1
     4    2    3 ar
     5    2   35 1
     6    3    4 ar
     7    3   19 1
     8    4    5 ar
     9    4   36 1
    10    5    6 ar
    11    5   37 1
    12    6    7 1
    13    7    8 2
    14    7    9 am
    15    9   10 1
    16    9   38 1
    17   10   11 1
    18   10   16 1
    19   10   39 1
    20   11   12 1
    21   11   40 1
    22   11   41 1
    23   12   13 1
    24   12   42 1
    25   12   43 1
    26   13   14 2
    27   13   15 1
    28   16   17 2
    29   16   18 1
    30   19   20 1
    31   19   44 1
    32   20   21 1
    33   20   45 1
    34   20   46 1
    35   21   22 1
    36   21   47 1
    37   21   48 1
    38   22   33 1
    39   22   23 1
    40   22   49 1
    41   23   24 1
    42   23   50 1
    43   23   51 1
    44   24   25 1
    45   24   52 1
    46   24   53 1
    47   25   30 1
    48   25   26 2
    49   26   27 1
    50   26   33 1
    51   27   28 am
    52   27   32 2
    53   28   29 1
    54   28   57 1
    55   29   30 2
    56   29   31 1
    57   31   54 1
    58   31   55 1
    59   33   56 1
@<TRIPOS>MOLECULE
CHEMBL37062
   56    58     0     0     0
SMALL
USER_CHARGES

@<TRIPOS>ATOM
      1 C1         -0.0169    1.3937    0.0097 C.ar      1 <0>        -0.0182
      2 C2          1.1662    2.0965    0.0022 C.ar      1 <0>        -0.2079
      3 C3          2.3811    1.4169   -0.0131 C.ar      1 <0>         0.2230
      4 C4          2.4034    0.0249   -0.0208 C.ar      1 <0>        -0.2008
      5 C5          1.2237   -0.6836   -0.0138 C.ar      1 <0>        -0.0354
      6 C6          0.0021   -0.0041    0.0020 C.ar      1 <0>        -0.1668
      7 C7         -1.2644   -0.7605    0.0105 C.2       1 <0>         0.5501
      8 O1         -2.3263   -0.1682    0.0243 O.2       1 <0>        -0.5614
      9 N1         -1.2445   -2.1081    0.0031 N.am      1 <0>        -0.6791
     10 C8         -2.5022   -2.8593    0.0116 C.3       1 <0>         0.0746
     11 C9         -2.2637   -4.2464    0.6114 C.3       1 <0>        -0.0824
     12 C10        -1.8670   -4.1047    2.0823 C.3       1 <0>        -0.1767
     13 C11        -1.6321   -5.4710    2.6731 C.2       1 <0>         0.4912
     14 O2         -1.7693   -6.4659    1.9818 O.co2     1 <0>        -0.6976
     15 O3         -1.3049   -5.5815    3.8424 O.co2     1 <0>        -0.7206
     16 C12        -3.0110   -3.0030   -1.3996 C.2       1 <0>         0.4980
     17 O4         -2.2242   -3.0459   -2.3300 O.co2     1 <0>        -0.6981
     18 O5         -4.2095   -3.0763   -1.6111 O.co2     1 <0>        -0.7034
     19 N2          3.5749    2.1299   -0.0211 N.pl3     1 <0>        -0.7469
     20 C13         4.8542    1.4162   -0.0371 C.3       1 <0>         0.1265
     21 C14         6.0023    2.4276   -0.0432 C.3       1 <0>        -0.1368
     22 C15         7.3384    1.6823   -0.0600 C.3       1 <0>         0.1408
     23 C16         8.4960    2.6889    0.0208 C.3       1 <0>         0.1256
     24 N3          8.4639    3.5237   -1.1889 N.pl3     1 <0>        -0.7330
     25 C17         8.2824    2.9210   -2.4177 C.2       1 <0>         0.3282
     26 C18         7.7931    1.6488   -2.4967 C.2       1 <0>        -0.0348
     27 C19         7.6134    1.0610   -3.7652 C.2       1 <0>         0.5367
     28 N4          7.9289    1.7617   -4.8669 N.2       1 <0>        -0.6280
     29 C20         8.4023    2.9861   -4.7795 C.2       1 <0>         0.6535
     30 N5          8.5898    3.5898   -3.5744 N.pl3     1 <0>        -0.6361
     31 N6          8.7138    3.6685   -5.9275 N.pl3     1 <0>        -0.8267
     32 O6          7.1747   -0.0768   -3.8618 O.2       1 <0>        -0.5202
     33 N7          7.4759    0.9348   -1.3205 N.pl3     1 <0>        -0.7233
     34 H1         -0.9590    1.9215    0.0260 H         1 <0>         0.1323
     35 H2          1.1522    3.1764    0.0078 H         1 <0>         0.1178
     36 H3          3.3474   -0.4995   -0.0326 H         1 <0>         0.1219
     37 H4          1.2416   -1.7634   -0.0204 H         1 <0>         0.1285
     38 H5         -0.3974   -2.5806   -0.0078 H         1 <0>         0.3904
     39 H6         -3.2399   -2.3261    0.6112 H         1 <0>         0.0767
     40 H7         -3.1771   -4.8365    0.5367 H         1 <0>         0.0716
     41 H8         -1.4631   -4.7456    0.0656 H         1 <0>         0.0599
     42 H9         -0.9536   -3.5146    2.1570 H         1 <0>         0.0515
     43 H10        -2.6677   -3.6056    2.6281 H         1 <0>         0.0523
     44 H11         3.5606    3.0997   -0.0161 H         1 <0>         0.3936
     45 H12         4.9299    0.7860    0.8490 H         1 <0>         0.0582
     46 H13         4.9126    0.7950   -0.9309 H         1 <0>         0.0657
     47 H14         5.9267    3.0578   -0.9294 H         1 <0>         0.0691
     48 H15         5.9440    3.0488    0.8505 H         1 <0>         0.0720
     49 H16         7.3874    0.9942    0.7840 H         1 <0>         0.1021
     50 H17         8.3767    3.3165    0.9040 H         1 <0>         0.0937
     51 H18         9.4447    2.1548    0.0740 H         1 <0>         0.0701
     52 H19         8.5692    4.4858   -1.1245 H         1 <0>         0.3985
     53 H20         8.5845    3.2480   -6.7920 H         1 <0>         0.4303
     54 H21         9.0635    4.5718   -5.8751 H         1 <0>         0.4080
     55 H22         7.3511   -0.0268   -1.3427 H         1 <0>         0.4124
     56 H23         8.9406    4.4933   -3.5338 H         1 <0>         0.4089
@<TRIPOS>BOND
     1    1    6 ar
     2    1    2 ar
     3    1   34 1
     4    2    3 ar
     5    2   35 1
     6    3    4 ar
     7    3   19 1
     8    4    5 ar
     9    4   36 1
    10    5    6 ar
    11    5   37 1
    12    6    7 1
    13    7    8 2
    14    7    9 am
    15    9   10 1
    16    9   38 1
    17   10   11 1
    18   10   16 1
    19   10   39 1
    20   11   12 1
    21   11   40 1
    22   11   41 1
    23   12   13 1
    24   12   42 1
    25   12   43 1
    26   13   14 2
    27   13   15 1
    28   16   17 2
    29   16   18 1
    30   19   20 1
    31   19   44 1
    32   20   21 1
    33   20   45 1
    34   20   46 1
    35   21   22 1
    36   21   47 1
    37   21   48 1
    38   22   33 1
    39   22   23 1
    40   22   49 1
    41   23   24 1
    42   23   50 1
    43   23   51 1
    44   24   25 1
    45   24   52 1
    46   25   30 1
    47   25   26 2
    48   26   27 1
    49   26   33 1
    50   27   28 1
    51   27   32 2
    52   28   29 2
    53   29   30 1
    54   29   31 1
    55   30   56 1
    56   31   53 1
    57   31   54 1
    58   33   55 1
@<TRIPOS>MOLECULE
CHEMBL37062__1
   56    58     0     0     0
SMALL
USER_CHARGES

@<TRIPOS>ATOM
      1 C1         -0.0169    1.3937    0.0097 C.ar      1 <0>        -0.0179
      2 C2          1.1662    2.0965    0.0022 C.ar      1 <0>        -0.2083
      3 C3          2.3811    1.4169   -0.0131 C.ar      1 <0>         0.2239
      4 C4          2.4034    0.0249   -0.0208 C.ar      1 <0>        -0.2018
      5 C5          1.2237   -0.6836   -0.0138 C.ar      1 <0>        -0.0356
      6 C6          0.0021   -0.0041    0.0020 C.ar      1 <0>        -0.1677
      7 C7         -1.2644   -0.7605    0.0105 C.2       1 <0>         0.5502
      8 O1         -2.3263   -0.1682    0.0243 O.2       1 <0>        -0.5613
      9 N1         -1.2445   -2.1081    0.0031 N.am      1 <0>        -0.6793
     10 C8         -2.5022   -2.8593    0.0116 C.3       1 <0>         0.0746
     11 C9         -2.2637   -4.2464    0.6114 C.3       1 <0>        -0.0823
     12 C10        -1.8670   -4.1047    2.0823 C.3       1 <0>        -0.1767
     13 C11        -1.6321   -5.4710    2.6731 C.2       1 <0>         0.4912
     14 O2         -1.7693   -6.4659    1.9818 O.co2     1 <0>        -0.6979
     15 O3         -1.3049   -5.5815    3.8424 O.co2     1 <0>        -0.7203
     16 C12        -3.0110   -3.0030   -1.3996 C.2       1 <0>         0.4982
     17 O4         -2.2242   -3.0459   -2.3300 O.co2     1 <0>        -0.6988
     18 O5         -4.2095   -3.0763   -1.6111 O.co2     1 <0>        -0.7032
     19 N2          3.5749    2.1299   -0.0211 N.pl3     1 <0>        -0.7467
     20 C13         4.8542    1.4162   -0.0371 C.3       1 <0>         0.1277
     21 C14         6.0023    2.4276   -0.0432 C.3       1 <0>        -0.1380
     22 C15         7.3384    1.6823   -0.0600 C.3       1 <0>         0.1475
     23 C16         8.4952    2.6889    0.0241 C.3       1 <0>         0.1194
     24 N3          8.4571    3.5389   -1.1746 N.pl3     1 <0>        -0.7121
     25 C17         8.2776    2.9465   -2.4147 C.2       1 <0>         0.3953
     26 C18         7.7862    1.6511   -2.4974 C.2       1 <0>        -0.0852
     27 C19         7.6081    1.0704   -3.7574 C.2       1 <0>         0.5401
     28 N4          7.9237    1.7959   -4.8525 N.am      1 <0>        -0.6497
     29 C20         8.4049    3.0619   -4.7184 C.2       1 <0>         0.6262
     30 N5          8.5740    3.6142   -3.5360 N.2       1 <0>        -0.5926
     31 N6          8.7215    3.7801   -5.8438 N.pl3     1 <0>        -0.8287
     32 O6          7.1771   -0.0677   -3.8653 O.2       1 <0>        -0.5433
     33 N7          7.4753    0.9351   -1.3206 N.pl3     1 <0>        -0.7271
     34 H1         -0.9590    1.9215    0.0260 H         1 <0>         0.1322
     35 H2          1.1522    3.1764    0.0078 H         1 <0>         0.1182
     36 H3          3.3474   -0.4995   -0.0326 H         1 <0>         0.1215
     37 H4          1.2416   -1.7634   -0.0204 H         1 <0>         0.1280
     38 H5         -0.3974   -2.5806   -0.0078 H         1 <0>         0.3903
     39 H6         -3.2399   -2.3261    0.6112 H         1 <0>         0.0768
     40 H7         -3.1771   -4.8365    0.5367 H         1 <0>         0.0715
     41 H8         -1.4631   -4.7456    0.0656 H         1 <0>         0.0597
     42 H9         -0.9536   -3.5146    2.1570 H         1 <0>         0.0516
     43 H10        -2.6677   -3.6056    2.6281 H         1 <0>         0.0524
     44 H11         3.5606    3.0997   -0.0161 H         1 <0>         0.3943
     45 H12         4.9299    0.7860    0.8490 H         1 <0>         0.0575
     46 H13         4.9126    0.7950   -0.9309 H         1 <0>         0.0641
     47 H14         5.9267    3.0578   -0.9294 H         1 <0>         0.0701
     48 H15         5.9440    3.0488    0.8505 H         1 <0>         0.0718
     49 H16         7.3865    0.9936    0.7835 H         1 <0>         0.0999
     50 H17         8.3811    3.3057    0.9155 H         1 <0>         0.0921
     51 H18         9.4444    2.1548    0.0655 H         1 <0>         0.0683
     52 H19         8.5560    4.5008   -1.0987 H         1 <0>         0.4045
     53 H20         8.6014    3.3845   -6.7213 H         1 <0>         0.4126
     54 H21         9.0654    4.6834   -5.7619 H         1 <0>         0.4247
     55 H22         7.3550   -0.0272   -1.3426 H         1 <0>         0.4062
     56 H23         7.8073    1.4136   -5.7363 H         1 <0>         0.4120
@<TRIPOS>BOND
     1    1    6 ar
     2    1    2 ar
     3    1   34 1
     4    2    3 ar
     5    2   35 1
     6    3    4 ar
     7    3   19 1
     8    4    5 ar
     9    4   36 1
    10    5    6 ar
    11    5   37 1
    12    6    7 1
    13    7    8 2
    14    7    9 am
    15    9   10 1
    16    9   38 1
    17   10   11 1
    18   10   16 1
    19   10   39 1
    20   11   12 1
    21   11   40 1
    22   11   41 1
    23   12   13 1
    24   12   42 1
    25   12   43 1
    26   13   14 2
    27   13   15 1
    28   16   17 2
    29   16   18 1
    30   19   20 1
    31   19   44 1
    32   20   21 1
    33   20   45 1
    34   20   46 1
    35   21   22 1
    36   21   47 1
    37   21   48 1
    38   22   33 1
    39   22   23 1
    40   22   49 1
    41   23   24 1
    42   23   50 1
    43   23   51 1
    44   24   25 1
    45   24   52 1
    46   25   30 1
    47   25   26 2
    48   26   27 1
    49   26   33 1
    50   27   28 am
    51   27   32 2
    52   28   29 1
    53   28   56 1
    54   29   30 2
    55   29   31 1
    56   31   53 1
    57   31   54 1
    58   33   55 1
@<TRIPOS>MOLECULE
CHEMBL37062__2
   56    58     0     0     0
SMALL
USER_CHARGES

@<TRIPOS>ATOM
      1 C1         -0.0169    1.3937    0.0097 C.ar      1 <0>        -0.0182
      2 C2          1.1662    2.0965    0.0022 C.ar      1 <0>        -0.2079
      3 C3          2.3811    1.4169   -0.0131 C.ar      1 <0>         0.2230
      4 C4          2.4034    0.0249   -0.0208 C.ar      1 <0>        -0.2008
      5 C5          1.2237   -0.6836   -0.0138 C.ar      1 <0>        -0.0354
      6 C6          0.0021   -0.0041    0.0020 C.ar      1 <0>        -0.1668
      7 C7         -1.2644   -0.7605    0.0105 C.2       1 <0>         0.5501
      8 O1         -2.3263   -0.1682    0.0243 O.2       1 <0>        -0.5615
      9 N1         -1.2445   -2.1081    0.0031 N.am      1 <0>        -0.6791
     10 C8         -2.5022   -2.8593    0.0116 C.3       1 <0>         0.0746
     11 C9         -2.2637   -4.2464    0.6114 C.3       1 <0>        -0.0820
     12 C10        -1.8670   -4.1047    2.0823 C.3       1 <0>        -0.1773
     13 C11        -1.6321   -5.4710    2.6731 C.2       1 <0>         0.4913
     14 O2         -1.7693   -6.4659    1.9818 O.co2     1 <0>        -0.6985
     15 O3         -1.3049   -5.5815    3.8424 O.co2     1 <0>        -0.7193
     16 C12        -3.0110   -3.0030   -1.3996 C.2       1 <0>         0.4987
     17 O4         -2.2242   -3.0459   -2.3300 O.co2     1 <0>        -0.6993
     18 O5         -4.2095   -3.0763   -1.6111 O.co2     1 <0>        -0.7031
     19 N2          3.5749    2.1299   -0.0211 N.pl3     1 <0>        -0.7469
     20 C13         4.8542    1.4162   -0.0371 C.3       1 <0>         0.1266
     21 C14         6.0023    2.4276   -0.0432 C.3       1 <0>        -0.1368
     22 C15         7.3384    1.6823   -0.0600 C.3       1 <0>         0.1409
     23 C16         8.4943    2.6898   -0.1532 C.3       1 <0>         0.1257
     24 N3          8.4859    3.5123    1.0653 N.pl3     1 <0>        -0.7331
     25 C17         8.3283    2.8973    2.2913 C.2       1 <0>         0.3280
     26 C18         7.8404    1.6243    2.3669 C.2       1 <0>        -0.0346
     27 C19         7.6854    1.0237    3.6327 C.2       1 <0>         0.5364
     28 N4          8.0223    1.7134    4.7350 N.2       1 <0>        -0.6277
     29 C20         8.4941    2.9386    4.6508 C.2       1 <0>         0.6534
     30 N5          8.6582    3.5545    3.4484 N.pl3     1 <0>        -0.6362
     31 N6          8.8271    3.6098    5.7994 N.pl3     1 <0>        -0.8267
     32 O6          7.2478   -0.1147    3.7264 O.2       1 <0>        -0.5191
     33 N7          7.5003    0.9222    1.1900 N.pl3     1 <0>        -0.7233
     34 H1         -0.9590    1.9215    0.0260 H         1 <0>         0.1323
     35 H2          1.1522    3.1764    0.0078 H         1 <0>         0.1178
     36 H3          3.3474   -0.4995   -0.0326 H         1 <0>         0.1219
     37 H4          1.2416   -1.7634   -0.0204 H         1 <0>         0.1285
     38 H5         -0.3974   -2.5806   -0.0078 H         1 <0>         0.3905
     39 H6         -3.2399   -2.3261    0.6112 H         1 <0>         0.0767
     40 H7         -3.1771   -4.8365    0.5367 H         1 <0>         0.0715
     41 H8         -1.4631   -4.7456    0.0656 H         1 <0>         0.0597
     42 H9         -0.9536   -3.5146    2.1570 H         1 <0>         0.0519
     43 H10        -2.6677   -3.6056    2.6281 H         1 <0>         0.0523
     44 H11         3.5606    3.0997   -0.0161 H         1 <0>         0.3936
     45 H12         4.9299    0.7860    0.8490 H         1 <0>         0.0659
     46 H13         4.9126    0.7950   -0.9309 H         1 <0>         0.0579
     47 H14         5.9267    3.0578   -0.9294 H         1 <0>         0.0719
     48 H15         5.9440    3.0488    0.8505 H         1 <0>         0.0692
     49 H16         7.3708    1.0028   -0.9116 H         1 <0>         0.1019
     50 H17         9.4418    2.1563   -0.2302 H         1 <0>         0.0700
     51 H18         8.3579    3.3262   -1.0275 H         1 <0>         0.0936
     52 H19         8.5893    4.4751    1.0085 H         1 <0>         0.3985
     53 H20         8.7140    3.1808    6.6620 H         1 <0>         0.4304
     54 H21         9.1758    4.5136    5.7493 H         1 <0>         0.4079
     55 H22         7.3765   -0.0397    1.2048 H         1 <0>         0.4125
     56 H23         9.0088    4.4581    3.4100 H         1 <0>         0.4088
@<TRIPOS>BOND
     1    1    6 ar
     2    1    2 ar
     3    1   34 1
     4    2    3 ar
     5    2   35 1
     6    3    4 ar
     7    3   19 1
     8    4    5 ar
     9    4   36 1
    10    5    6 ar
    11    5   37 1
    12    6    7 1
    13    7    8 2
    14    7    9 am
    15    9   10 1
    16    9   38 1
    17   10   11 1
    18   10   16 1
    19   10   39 1
    20   11   12 1
    21   11   40 1
    22   11   41 1
    23   12   13 1
    24   12   42 1
    25   12   43 1
    26   13   14 2
    27   13   15 1
    28   16   17 2
    29   16   18 1
    30   19   20 1
    31   19   44 1
    32   20   21 1
    33   20   45 1
    34   20   46 1
    35   21   22 1
    36   21   47 1
    37   21   48 1
    38   22   33 1
    39   22   23 1
    40   22   49 1
    41   23   24 1
    42   23   50 1
    43   23   51 1
    44   24   25 1
    45   24   52 1
    46   25   30 1
    47   25   26 2
    48   26   27 1
    49   26   33 1
    50   27   28 1
    51   27   32 2
    52   28   29 2
    53   29   30 1
    54   29   31 1
    55   30   56 1
    56   31   53 1
    57   31   54 1
    58   33   55 1
@<TRIPOS>MOLECULE
CHEMBL37062__3
   56    58     0     0     0
SMALL
USER_CHARGES

@<TRIPOS>ATOM
      1 C1         -0.0169    1.3937    0.0097 C.ar      1 <0>        -0.0179
      2 C2          1.1662    2.0965    0.0022 C.ar      1 <0>        -0.2083
      3 C3          2.3811    1.4169   -0.0131 C.ar      1 <0>         0.2239
      4 C4          2.4034    0.0249   -0.0208 C.ar      1 <0>        -0.2018
      5 C5          1.2237   -0.6836   -0.0138 C.ar      1 <0>        -0.0356
      6 C6          0.0021   -0.0041    0.0020 C.ar      1 <0>        -0.1677
      7 C7         -1.2644   -0.7605    0.0105 C.2       1 <0>         0.5502
      8 O1         -2.3263   -0.1682    0.0243 O.2       1 <0>        -0.5613
      9 N1         -1.2445   -2.1081    0.0031 N.am      1 <0>        -0.6793
     10 C8         -2.5022   -2.8593    0.0116 C.3       1 <0>         0.0746
     11 C9         -2.2637   -4.2464    0.6114 C.3       1 <0>        -0.0821
     12 C10        -1.8670   -4.1047    2.0823 C.3       1 <0>        -0.1771
     13 C11        -1.6321   -5.4710    2.6731 C.2       1 <0>         0.4913
     14 O2         -1.7693   -6.4659    1.9818 O.co2     1 <0>        -0.6982
     15 O3         -1.3049   -5.5815    3.8424 O.co2     1 <0>        -0.7200
     16 C12        -3.0110   -3.0030   -1.3996 C.2       1 <0>         0.4986
     17 O4         -2.2242   -3.0459   -2.3300 O.co2     1 <0>        -0.6992
     18 O5         -4.2095   -3.0763   -1.6111 O.co2     1 <0>        -0.7030
     19 N2          3.5749    2.1299   -0.0211 N.pl3     1 <0>        -0.7466
     20 C13         4.8542    1.4162   -0.0371 C.3       1 <0>         0.1278
     21 C14         6.0023    2.4276   -0.0432 C.3       1 <0>        -0.1381
     22 C15         7.3384    1.6823   -0.0600 C.3       1 <0>         0.1476
     23 C16         8.4934    2.6898   -0.1564 C.3       1 <0>         0.1195
     24 N3          8.4788    3.5277    1.0512 N.pl3     1 <0>        -0.7122
     25 C17         8.3234    2.9228    2.2886 C.2       1 <0>         0.3950
     26 C18         7.8336    1.6266    2.3678 C.2       1 <0>        -0.0852
     27 C19         7.6800    1.0332    3.6252 C.2       1 <0>         0.5399
     28 N4          8.0169    1.7477    4.7211 N.am      1 <0>        -0.6497
     29 C20         8.4955    3.0150    4.5904 C.2       1 <0>         0.6264
     30 N5          8.6417    3.5792    3.4106 N.2       1 <0>        -0.5929
     31 N6          8.8332    3.7222    5.7166 N.pl3     1 <0>        -0.8287
     32 O6          7.2503   -0.1056    3.7300 O.2       1 <0>        -0.5423
     33 N7          7.4998    0.9225    1.1901 N.pl3     1 <0>        -0.7271
     34 H1         -0.9590    1.9215    0.0260 H         1 <0>         0.1322
     35 H2          1.1522    3.1764    0.0078 H         1 <0>         0.1182
     36 H3          3.3474   -0.4995   -0.0326 H         1 <0>         0.1215
     37 H4          1.2416   -1.7634   -0.0204 H         1 <0>         0.1280
     38 H5         -0.3974   -2.5806   -0.0078 H         1 <0>         0.3903
     39 H6         -3.2399   -2.3261    0.6112 H         1 <0>         0.0767
     40 H7         -3.1771   -4.8365    0.5367 H         1 <0>         0.0715
     41 H8         -1.4631   -4.7456    0.0656 H         1 <0>         0.0597
     42 H9         -0.9536   -3.5146    2.1570 H         1 <0>         0.0517
     43 H10        -2.6677   -3.6056    2.6281 H         1 <0>         0.0523
     44 H11         3.5606    3.0997   -0.0161 H         1 <0>         0.3943
     45 H12         4.9299    0.7860    0.8490 H         1 <0>         0.0643
     46 H13         4.9126    0.7950   -0.9309 H         1 <0>         0.0572
     47 H14         5.9267    3.0578   -0.9294 H         1 <0>         0.0717
     48 H15         5.9440    3.0488    0.8505 H         1 <0>         0.0702
     49 H16         7.3700    1.0021   -0.9111 H         1 <0>         0.0996
     50 H17         9.4416    2.1562   -0.2217 H         1 <0>         0.0681
     51 H18         8.3621    3.3156   -1.0392 H         1 <0>         0.0919
     52 H19         8.5769    4.4903    0.9832 H         1 <0>         0.4044
     53 H20         8.7296    3.3180    6.5923 H         1 <0>         0.4127
     54 H21         9.1755    4.6263    5.6372 H         1 <0>         0.4247
     55 H22         7.3792   -0.0399    1.2048 H         1 <0>         0.4062
     56 H23         7.9177    1.3565    5.6031 H         1 <0>         0.4123
@<TRIPOS>BOND
     1    1    6 ar
     2    1    2 ar
     3    1   34 1
     4    2    3 ar
     5    2   35 1
     6    3    4 ar
     7    3   19 1
     8    4    5 ar
     9    4   36 1
    10    5    6 ar
    11    5   37 1
    12    6    7 1
    13    7    8 2
    14    7    9 am
    15    9   10 1
    16    9   38 1
    17   10   11 1
    18   10   16 1
    19   10   39 1
    20   11   12 1
    21   11   40 1
    22   11   41 1
    23   12   13 1
    24   12   42 1
    25   12   43 1
    26   13   14 2
    27   13   15 1
    28   16   17 2
    29   16   18 1
    30   19   20 1
    31   19   44 1
    32   20   21 1
    33   20   45 1
    34   20   46 1
    35   21   22 1
    36   21   47 1
    37   21   48 1
    38   22   33 1
    39   22   23 1
    40   22   49 1
    41   23   24 1
    42   23   50 1
    43   23   51 1
    44   24   25 1
    45   24   52 1
    46   25   30 1
    47   25   26 2
    48   26   27 1
    49   26   33 1
    50   27   28 am
    51   27   32 2
    52   28   29 1
    53   28   56 1
    54   29   30 2
    55   29   31 1
    56   31   53 1
    57   31   54 1
    58   33   55 1
@<TRIPOS>MOLECULE
CHEMBL37062__4
   56    58     0     0     0
SMALL
USER_CHARGES

@<TRIPOS>ATOM
      1 C1         -0.0169    1.3937    0.0097 C.ar      1 <0>        -0.0186
      2 C2          1.1662    2.0965    0.0022 C.ar      1 <0>        -0.2077
      3 C3          2.3811    1.4169   -0.0131 C.ar      1 <0>         0.2220
      4 C4          2.4034    0.0249   -0.0208 C.ar      1 <0>        -0.2009
      5 C5          1.2237   -0.6836   -0.0138 C.ar      1 <0>        -0.0364
      6 C6          0.0021   -0.0041    0.0020 C.ar      1 <0>        -0.1641
      7 C7         -1.2644   -0.7605    0.0105 C.2       1 <0>         0.5570
      8 O1         -2.3263   -0.1682    0.0243 O.2       1 <0>        -0.5629
      9 N1         -1.2445   -2.1081    0.0031 N.am      1 <0>        -0.6795
     10 C8         -2.5022   -2.8593    0.0116 C.3       1 <0>         0.0735
     11 C9         -2.2758   -4.2399   -0.6078 C.3       1 <0>        -0.0800
     12 C10        -1.9084   -4.0824   -2.0846 C.3       1 <0>        -0.1780
     13 C11        -1.6854   -5.4422   -2.6946 C.2       1 <0>         0.4911
     14 O2         -1.8089   -6.4445   -2.0115 O.co2     1 <0>        -0.6981
     15 O3         -1.3815   -5.5401   -3.8713 O.co2     1 <0>        -0.7200
     16 C12        -2.9829   -3.0182    1.4310 C.2       1 <0>         0.4959
     17 O4         -2.3350   -2.5475    2.3503 O.co2     1 <0>        -0.6973
     18 O5         -4.0198   -3.6173    1.6600 O.co2     1 <0>        -0.7021
     19 N2          3.5749    2.1299   -0.0211 N.pl3     1 <0>        -0.7473
     20 C13         4.8542    1.4162   -0.0371 C.3       1 <0>         0.1268
     21 C14         6.0023    2.4276   -0.0432 C.3       1 <0>        -0.1368
     22 C15         7.3384    1.6823   -0.0600 C.3       1 <0>         0.1409
     23 C16         8.4960    2.6889    0.0208 C.3       1 <0>         0.1257
     24 N3          8.4639    3.5237   -1.1889 N.pl3     1 <0>        -0.7330
     25 C17         8.2824    2.9210   -2.4177 C.2       1 <0>         0.3280
     26 C18         7.7931    1.6488   -2.4967 C.2       1 <0>        -0.0346
     27 C19         7.6134    1.0610   -3.7652 C.2       1 <0>         0.5364
     28 N4          7.9289    1.7617   -4.8669 N.2       1 <0>        -0.6277
     29 C20         8.4023    2.9861   -4.7795 C.2       1 <0>         0.6534
     30 N5          8.5898    3.5898   -3.5744 N.pl3     1 <0>        -0.6362
     31 N6          8.7138    3.6685   -5.9275 N.pl3     1 <0>        -0.8267
     32 O6          7.1747   -0.0768   -3.8618 O.2       1 <0>        -0.5192
     33 N7          7.4759    0.9348   -1.3205 N.pl3     1 <0>        -0.7233
     34 H1         -0.9590    1.9215    0.0260 H         1 <0>         0.1320
     35 H2          1.1522    3.1764    0.0078 H         1 <0>         0.1175
     36 H3          3.3474   -0.4995   -0.0326 H         1 <0>         0.1213
     37 H4          1.2416   -1.7634   -0.0204 H         1 <0>         0.1275
     38 H5         -0.3974   -2.5806   -0.0078 H         1 <0>         0.3882
     39 H6         -3.2516   -2.3197   -0.5676 H         1 <0>         0.0768
     40 H7         -1.4645   -4.7448   -0.0833 H         1 <0>         0.0544
     41 H8         -3.1876   -4.8309   -0.5212 H         1 <0>         0.0780
     42 H9         -2.7197   -3.5775   -2.6090 H         1 <0>         0.0518
     43 H10        -0.9966   -3.4914   -2.1711 H         1 <0>         0.0509
     44 H11         3.5606    3.0997   -0.0161 H         1 <0>         0.3934
     45 H12         4.9299    0.7860    0.8490 H         1 <0>         0.0577
     46 H13         4.9126    0.7950   -0.9309 H         1 <0>         0.0656
     47 H14         5.9267    3.0578   -0.9294 H         1 <0>         0.0691
     48 H15         5.9440    3.0488    0.8505 H         1 <0>         0.0719
     49 H16         7.3874    0.9942    0.7840 H         1 <0>         0.1018
     50 H17         8.3767    3.3165    0.9040 H         1 <0>         0.0936
     51 H18         9.4447    2.1548    0.0740 H         1 <0>         0.0699
     52 H19         8.5692    4.4858   -1.1245 H         1 <0>         0.3985
     53 H20         8.5845    3.2480   -6.7920 H         1 <0>         0.4304
     54 H21         9.0635    4.5718   -5.8751 H         1 <0>         0.4079
     55 H22         7.3511   -0.0268   -1.3427 H         1 <0>         0.4125
     56 H23         8.9406    4.4933   -3.5338 H         1 <0>         0.4088
@<TRIPOS>BOND
     1    1    6 ar
     2    1    2 ar
     3    1   34 1
     4    2    3 ar
     5    2   35 1
     6    3    4 ar
     7    3   19 1
     8    4    5 ar
     9    4   36 1
    10    5    6 ar
    11    5   37 1
    12    6    7 1
    13    7    8 2
    14    7    9 am
    15    9   10 1
    16    9   38 1
    17   10   11 1
    18   10   16 1
    19   10   39 1
    20   11   12 1
    21   11   40 1
    22   11   41 1
    23   12   13 1
    24   12   42 1
    25   12   43 1
    26   13   14 2
    27   13   15 1
    28   16   17 2
    29   16   18 1
    30   19   20 1
    31   19   44 1
    32   20   21 1
    33   20   45 1
    34   20   46 1
    35   21   22 1
    36   21   47 1
    37   21   48 1
    38   22   33 1
    39   22   23 1
    40   22   49 1
    41   23   24 1
    42   23   50 1
    43   23   51 1
    44   24   25 1
    45   24   52 1
    46   25   30 1
    47   25   26 2
    48   26   27 1
    49   26   33 1
    50   27   28 1
    51   27   32 2
    52   28   29 2
    53   29   30 1
    54   29   31 1
    55   30   56 1
    56   31   53 1
    57   31   54 1
    58   33   55 1
@<TRIPOS>MOLECULE
CHEMBL37062__5
   56    58     0     0     0
SMALL
USER_CHARGES

@<TRIPOS>ATOM
      1 C1         -0.0169    1.3937    0.0097 C.ar      1 <0>        -0.0183
      2 C2          1.1662    2.0965    0.0022 C.ar      1 <0>        -0.2080
      3 C3          2.3811    1.4169   -0.0131 C.ar      1 <0>         0.2229
      4 C4          2.4034    0.0249   -0.0208 C.ar      1 <0>        -0.2019
      5 C5          1.2237   -0.6836   -0.0138 C.ar      1 <0>        -0.0366
      6 C6          0.0021   -0.0041    0.0020 C.ar      1 <0>        -0.1651
      7 C7         -1.2644   -0.7605    0.0105 C.2       1 <0>         0.5571
      8 O1         -2.3263   -0.1682    0.0243 O.2       1 <0>        -0.5628
      9 N1         -1.2445   -2.1081    0.0031 N.am      1 <0>        -0.6798
     10 C8         -2.5022   -2.8593    0.0116 C.3       1 <0>         0.0735
     11 C9         -2.2758   -4.2399   -0.6078 C.3       1 <0>        -0.0801
     12 C10        -1.9084   -4.0824   -2.0846 C.3       1 <0>        -0.1778
     13 C11        -1.6854   -5.4422   -2.6946 C.2       1 <0>         0.4911
     14 O2         -1.8089   -6.4445   -2.0115 O.co2     1 <0>        -0.6977
     15 O3         -1.3815   -5.5401   -3.8713 O.co2     1 <0>        -0.7207
     16 C12        -2.9829   -3.0182    1.4310 C.2       1 <0>         0.4958
     17 O4         -2.3350   -2.5475    2.3503 O.co2     1 <0>        -0.6970
     18 O5         -4.0198   -3.6173    1.6600 O.co2     1 <0>        -0.7021
     19 N2          3.5749    2.1299   -0.0211 N.pl3     1 <0>        -0.7470
     20 C13         4.8542    1.4162   -0.0371 C.3       1 <0>         0.1280
     21 C14         6.0023    2.4276   -0.0432 C.3       1 <0>        -0.1381
     22 C15         7.3384    1.6823   -0.0600 C.3       1 <0>         0.1476
     23 C16         8.4952    2.6889    0.0241 C.3       1 <0>         0.1195
     24 N3          8.4571    3.5389   -1.1746 N.pl3     1 <0>        -0.7122
     25 C17         8.2776    2.9465   -2.4147 C.2       1 <0>         0.3951
     26 C18         7.7862    1.6511   -2.4974 C.2       1 <0>        -0.0852
     27 C19         7.6081    1.0704   -3.7574 C.2       1 <0>         0.5399
     28 N4          7.9237    1.7959   -4.8525 N.am      1 <0>        -0.6498
     29 C20         8.4049    3.0619   -4.7184 C.2       1 <0>         0.6264
     30 N5          8.5740    3.6142   -3.5360 N.2       1 <0>        -0.5929
     31 N6          8.7215    3.7801   -5.8438 N.pl3     1 <0>        -0.8287
     32 O6          7.1771   -0.0677   -3.8653 O.2       1 <0>        -0.5424
     33 N7          7.4753    0.9351   -1.3206 N.pl3     1 <0>        -0.7271
     34 H1         -0.9590    1.9215    0.0260 H         1 <0>         0.1319
     35 H2          1.1522    3.1764    0.0078 H         1 <0>         0.1179
     36 H3          3.3474   -0.4995   -0.0326 H         1 <0>         0.1210
     37 H4          1.2416   -1.7634   -0.0204 H         1 <0>         0.1270
     38 H5         -0.3974   -2.5806   -0.0078 H         1 <0>         0.3881
     39 H6         -3.2516   -2.3197   -0.5676 H         1 <0>         0.0768
     40 H7         -1.4645   -4.7448   -0.0833 H         1 <0>         0.0544
     41 H8         -3.1876   -4.8309   -0.5212 H         1 <0>         0.0781
     42 H9         -2.7197   -3.5775   -2.6090 H         1 <0>         0.0519
     43 H10        -0.9966   -3.4914   -2.1711 H         1 <0>         0.0507
     44 H11         3.5606    3.0997   -0.0161 H         1 <0>         0.3942
     45 H12         4.9299    0.7860    0.8490 H         1 <0>         0.0570
     46 H13         4.9126    0.7950   -0.9309 H         1 <0>         0.0641
     47 H14         5.9267    3.0578   -0.9294 H         1 <0>         0.0702
     48 H15         5.9440    3.0488    0.8505 H         1 <0>         0.0716
     49 H16         7.3865    0.9936    0.7835 H         1 <0>         0.0995
     50 H17         8.3811    3.3057    0.9155 H         1 <0>         0.0919
     51 H18         9.4444    2.1548    0.0655 H         1 <0>         0.0681
     52 H19         8.5560    4.5008   -1.0987 H         1 <0>         0.4044
     53 H20         8.6014    3.3845   -6.7213 H         1 <0>         0.4127
     54 H21         9.0654    4.6834   -5.7619 H         1 <0>         0.4247
     55 H22         7.3550   -0.0272   -1.3426 H         1 <0>         0.4062
     56 H23         7.8073    1.4136   -5.7363 H         1 <0>         0.4122
@<TRIPOS>BOND
     1    1    6 ar
     2    1    2 ar
     3    1   34 1
     4    2    3 ar
     5    2   35 1
     6    3    4 ar
     7    3   19 1
     8    4    5 ar
     9    4   36 1
    10    5    6 ar
    11    5   37 1
    12    6    7 1
    13    7    8 2
    14    7    9 am
    15    9   10 1
    16    9   38 1
    17   10   11 1
    18   10   16 1
    19   10   39 1
    20   11   12 1
    21   11   40 1
    22   11   41 1
    23   12   13 1
    24   12   42 1
    25   12   43 1
    26   13   14 2
    27   13   15 1
    28   16   17 2
    29   16   18 1
    30   19   20 1
    31   19   44 1
    32   20   21 1
    33   20   45 1
    34   20   46 1
    35   21   22 1
    36   21   47 1
    37   21   48 1
    38   22   33 1
    39   22   23 1
    40   22   49 1
    41   23   24 1
    42   23   50 1
    43   23   51 1
    44   24   25 1
    45   24   52 1
    46   25   30 1
    47   25   26 2
    48   26   27 1
    49   26   33 1
    50   27   28 am
    51   27   32 2
    52   28   29 1
    53   28   56 1
    54   29   30 2
    55   29   31 1
    56   31   53 1
    57   31   54 1
    58   33   55 1
@<TRIPOS>MOLECULE
CHEMBL37062__6
   56    58     0     0     0
SMALL
USER_CHARGES

@<TRIPOS>ATOM
      1 C1         -0.0169    1.3937    0.0097 C.ar      1 <0>        -0.0186
      2 C2          1.1662    2.0965    0.0022 C.ar      1 <0>        -0.2077
      3 C3          2.3811    1.4169   -0.0131 C.ar      1 <0>         0.2220
      4 C4          2.4034    0.0249   -0.0208 C.ar      1 <0>        -0.2009
      5 C5          1.2237   -0.6836   -0.0138 C.ar      1 <0>        -0.0364
      6 C6          0.0021   -0.0041    0.0020 C.ar      1 <0>        -0.1641
      7 C7         -1.2644   -0.7605    0.0105 C.2       1 <0>         0.5570
      8 O1         -2.3263   -0.1682    0.0243 O.2       1 <0>        -0.5629
      9 N1         -1.2445   -2.1081    0.0031 N.am      1 <0>        -0.6795
     10 C8         -2.5022   -2.8593    0.0116 C.3       1 <0>         0.0736
     11 C9         -2.2758   -4.2399   -0.6078 C.3       1 <0>        -0.0804
     12 C10        -1.9084   -4.0824   -2.0846 C.3       1 <0>        -0.1773
     13 C11        -1.6854   -5.4422   -2.6946 C.2       1 <0>         0.4910
     14 O2         -1.8089   -6.4445   -2.0115 O.co2     1 <0>        -0.6971
     15 O3         -1.3815   -5.5401   -3.8713 O.co2     1 <0>        -0.7213
     16 C12        -2.9829   -3.0182    1.4310 C.2       1 <0>         0.4952
     17 O4         -2.3350   -2.5475    2.3503 O.co2     1 <0>        -0.6961
     18 O5         -4.0198   -3.6173    1.6600 O.co2     1 <0>        -0.7023
     19 N2          3.5749    2.1299   -0.0211 N.pl3     1 <0>        -0.7473
     20 C13         4.8542    1.4162   -0.0371 C.3       1 <0>         0.1268
     21 C14         6.0023    2.4276   -0.0432 C.3       1 <0>        -0.1368
     22 C15         7.3384    1.6823   -0.0600 C.3       1 <0>         0.1408
     23 C16         8.4943    2.6898   -0.1532 C.3       1 <0>         0.1256
     24 N3          8.4859    3.5123    1.0653 N.pl3     1 <0>        -0.7329
     25 C17         8.3283    2.8973    2.2913 C.2       1 <0>         0.3282
     26 C18         7.8404    1.6243    2.3669 C.2       1 <0>        -0.0347
     27 C19         7.6854    1.0237    3.6327 C.2       1 <0>         0.5368
     28 N4          8.0223    1.7134    4.7350 N.2       1 <0>        -0.6281
     29 C20         8.4941    2.9386    4.6508 C.2       1 <0>         0.6535
     30 N5          8.6582    3.5545    3.4484 N.pl3     1 <0>        -0.6360
     31 N6          8.8271    3.6098    5.7994 N.pl3     1 <0>        -0.8267
     32 O6          7.2478   -0.1147    3.7264 O.2       1 <0>        -0.5202
     33 N7          7.5003    0.9222    1.1900 N.pl3     1 <0>        -0.7232
     34 H1         -0.9590    1.9215    0.0260 H         1 <0>         0.1320
     35 H2          1.1522    3.1764    0.0078 H         1 <0>         0.1174
     36 H3          3.3474   -0.4995   -0.0326 H         1 <0>         0.1213
     37 H4          1.2416   -1.7634   -0.0204 H         1 <0>         0.1275
     38 H5         -0.3974   -2.5806   -0.0078 H         1 <0>         0.3882
     39 H6         -3.2516   -2.3197   -0.5676 H         1 <0>         0.0767
     40 H7         -1.4645   -4.7448   -0.0833 H         1 <0>         0.0547
     41 H8         -3.1876   -4.8309   -0.5212 H         1 <0>         0.0781
     42 H9         -2.7197   -3.5775   -2.6090 H         1 <0>         0.0518
     43 H10        -0.9966   -3.4914   -2.1711 H         1 <0>         0.0505
     44 H11         3.5606    3.0997   -0.0161 H         1 <0>         0.3934
     45 H12         4.9299    0.7860    0.8490 H         1 <0>         0.0654
     46 H13         4.9126    0.7950   -0.9309 H         1 <0>         0.0579
     47 H14         5.9267    3.0578   -0.9294 H         1 <0>         0.0720
     48 H15         5.9440    3.0488    0.8505 H         1 <0>         0.0690
     49 H16         7.3708    1.0028   -0.9116 H         1 <0>         0.1021
     50 H17         9.4418    2.1563   -0.2302 H         1 <0>         0.0700
     51 H18         8.3579    3.3262   -1.0275 H         1 <0>         0.0937
     52 H19         8.5893    4.4751    1.0085 H         1 <0>         0.3985
     53 H20         8.7140    3.1808    6.6620 H         1 <0>         0.4303
     54 H21         9.1758    4.5136    5.7493 H         1 <0>         0.4080
     55 H22         7.3765   -0.0397    1.2048 H         1 <0>         0.4124
     56 H23         9.0088    4.4581    3.4100 H         1 <0>         0.4089
@<TRIPOS>BOND
     1    1    6 ar
     2    1    2 ar
     3    1   34 1
     4    2    3 ar
     5    2   35 1
     6    3    4 ar
     7    3   19 1
     8    4    5 ar
     9    4   36 1
    10    5    6 ar
    11    5   37 1
    12    6    7 1
    13    7    8 2
    14    7    9 am
    15    9   10 1
    16    9   38 1
    17   10   11 1
    18   10   16 1
    19   10   39 1
    20   11   12 1
    21   11   40 1
    22   11   41 1
    23   12   13 1
    24   12   42 1
    25   12   43 1
    26   13   14 2
    27   13   15 1
    28   16   17 2
    29   16   18 1
    30   19   20 1
    31   19   44 1
    32   20   21 1
    33   20   45 1
    34   20   46 1
    35   21   22 1
    36   21   47 1
    37   21   48 1
    38   22   33 1
    39   22   23 1
    40   22   49 1
    41   23   24 1
    42   23   50 1
    43   23   51 1
    44   24   25 1
    45   24   52 1
    46   25   30 1
    47   25   26 2
    48   26   27 1
    49   26   33 1
    50   27   28 1
    51   27   32 2
    52   28   29 2
    53   29   30 1
    54   29   31 1
    55   30   56 1
    56   31   53 1
    57   31   54 1
    58   33   55 1
@<TRIPOS>MOLECULE
CHEMBL37062__7
   56    58     0     0     0
SMALL
USER_CHARGES

@<TRIPOS>ATOM
      1 C1         -0.0169    1.3937    0.0097 C.ar      1 <0>        -0.0183
      2 C2          1.1662    2.0965    0.0022 C.ar      1 <0>        -0.2080
      3 C3          2.3811    1.4169   -0.0131 C.ar      1 <0>         0.2228
      4 C4          2.4034    0.0249   -0.0208 C.ar      1 <0>        -0.2019
      5 C5          1.2237   -0.6836   -0.0138 C.ar      1 <0>        -0.0366
      6 C6          0.0021   -0.0041    0.0020 C.ar      1 <0>        -0.1651
      7 C7         -1.2644   -0.7605    0.0105 C.2       1 <0>         0.5571
      8 O1         -2.3263   -0.1682    0.0243 O.2       1 <0>        -0.5628
      9 N1         -1.2445   -2.1081    0.0031 N.am      1 <0>        -0.6797
     10 C8         -2.5022   -2.8593    0.0116 C.3       1 <0>         0.0735
     11 C9         -2.2758   -4.2399   -0.6078 C.3       1 <0>        -0.0803
     12 C10        -1.9084   -4.0824   -2.0846 C.3       1 <0>        -0.1774
     13 C11        -1.6854   -5.4422   -2.6946 C.2       1 <0>         0.4910
     14 O2         -1.8089   -6.4445   -2.0115 O.co2     1 <0>        -0.6974
     15 O3         -1.3815   -5.5401   -3.8713 O.co2     1 <0>        -0.7211
     16 C12        -2.9829   -3.0182    1.4310 C.2       1 <0>         0.4954
     17 O4         -2.3350   -2.5475    2.3503 O.co2     1 <0>        -0.6966
     18 O5         -4.0198   -3.6173    1.6600 O.co2     1 <0>        -0.7022
     19 N2          3.5749    2.1299   -0.0211 N.pl3     1 <0>        -0.7470
     20 C13         4.8542    1.4162   -0.0371 C.3       1 <0>         0.1280
     21 C14         6.0023    2.4276   -0.0432 C.3       1 <0>        -0.1380
     22 C15         7.3384    1.6823   -0.0600 C.3       1 <0>         0.1475
     23 C16         8.4934    2.6898   -0.1564 C.3       1 <0>         0.1195
     24 N3          8.4788    3.5277    1.0512 N.pl3     1 <0>        -0.7121
     25 C17         8.3234    2.9228    2.2886 C.2       1 <0>         0.3953
     26 C18         7.8336    1.6266    2.3678 C.2       1 <0>        -0.0852
     27 C19         7.6800    1.0332    3.6252 C.2       1 <0>         0.5401
     28 N4          8.0169    1.7477    4.7211 N.am      1 <0>        -0.6497
     29 C20         8.4955    3.0150    4.5904 C.2       1 <0>         0.6262
     30 N5          8.6417    3.5792    3.4106 N.2       1 <0>        -0.5926
     31 N6          8.8332    3.7222    5.7166 N.pl3     1 <0>        -0.8287
     32 O6          7.2503   -0.1056    3.7300 O.2       1 <0>        -0.5434
     33 N7          7.4998    0.9225    1.1901 N.pl3     1 <0>        -0.7271
     34 H1         -0.9590    1.9215    0.0260 H         1 <0>         0.1319
     35 H2          1.1522    3.1764    0.0078 H         1 <0>         0.1179
     36 H3          3.3474   -0.4995   -0.0326 H         1 <0>         0.1210
     37 H4          1.2416   -1.7634   -0.0204 H         1 <0>         0.1270
     38 H5         -0.3974   -2.5806   -0.0078 H         1 <0>         0.3881
     39 H6         -3.2516   -2.3197   -0.5676 H         1 <0>         0.0768
     40 H7         -1.4645   -4.7448   -0.0833 H         1 <0>         0.0544
     41 H8         -3.1876   -4.8309   -0.5212 H         1 <0>         0.0781
     42 H9         -2.7197   -3.5775   -2.6090 H         1 <0>         0.0519
     43 H10        -0.9966   -3.4914   -2.1711 H         1 <0>         0.0506
     44 H11         3.5606    3.0997   -0.0161 H         1 <0>         0.3942
     45 H12         4.9299    0.7860    0.8490 H         1 <0>         0.0638
     46 H13         4.9126    0.7950   -0.9309 H         1 <0>         0.0573
     47 H14         5.9267    3.0578   -0.9294 H         1 <0>         0.0717
     48 H15         5.9440    3.0488    0.8505 H         1 <0>         0.0701
     49 H16         7.3700    1.0021   -0.9111 H         1 <0>         0.0998
     50 H17         9.4416    2.1562   -0.2217 H         1 <0>         0.0682
     51 H18         8.3621    3.3156   -1.0392 H         1 <0>         0.0920
     52 H19         8.5769    4.4903    0.9832 H         1 <0>         0.4045
     53 H20         8.7296    3.3180    6.5923 H         1 <0>         0.4126
     54 H21         9.1755    4.6263    5.6372 H         1 <0>         0.4247
     55 H22         7.3792   -0.0399    1.2048 H         1 <0>         0.4061
     56 H23         7.9177    1.3565    5.6031 H         1 <0>         0.4120
@<TRIPOS>BOND
     1    1    6 ar
     2    1    2 ar
     3    1   34 1
     4    2    3 ar
     5    2   35 1
     6    3    4 ar
     7    3   19 1
     8    4    5 ar
     9    4   36 1
    10    5    6 ar
    11    5   37 1
    12    6    7 1
    13    7    8 2
    14    7    9 am
    15    9   10 1
    16    9   38 1
    17   10   11 1
    18   10   16 1
    19   10   39 1
    20   11   12 1
    21   11   40 1
    22   11   41 1
    23   12   13 1
    24   12   42 1
    25   12   43 1
    26   13   14 2
    27   13   15 1
    28   16   17 2
    29   16   18 1
    30   19   20 1
    31   19   44 1
    32   20   21 1
    33   20   45 1
    34   20   46 1
    35   21   22 1
    36   21   47 1
    37   21   48 1
    38   22   33 1
    39   22   23 1
    40   22   49 1
    41   23   24 1
    42   23   50 1
    43   23   51 1
    44   24   25 1
    45   24   52 1
    46   25   30 1
    47   25   26 2
    48   26   27 1
    49   26   33 1
    50   27   28 am
    51   27   32 2
    52   28   29 1
    53   28   56 1
    54   29   30 2
    55   29   31 1
    56   31   53 1
    57   31   54 1
    58   33   55 1
@<TRIPOS>MOLECULE
CHEMBL299928
   57    61     0     0     0
SMALL
USER_CHARGES

@<TRIPOS>ATOM
      1 C1         -0.0127    1.0858    0.0080 C.3       1 <0>        -0.1162
      2 C2         -0.7416    1.5850   -1.2129 C.2       1 <0>         0.4005
      3 N1         -1.2185    0.7107   -2.0459 N.2       1 <0>        -0.5211
      4 C3         -1.8861    1.0857   -3.1657 C.ar      1 <0>         0.1642
      5 C4         -2.3988    0.1458   -4.0622 C.ar      1 <0>        -0.1067
      6 C5         -3.0695    0.5713   -5.1866 C.ar      1 <0>        -0.0566
      7 C6         -3.2433    1.9255   -5.4417 C.ar      1 <0>        -0.1336
      8 C7         -2.7463    2.8716   -4.5724 C.ar      1 <0>        -0.0231
      9 C8         -2.0647    2.4620   -3.4282 C.ar      1 <0>        -0.2017
     10 C9         -1.5124    3.4258   -2.4648 C.2       1 <0>         0.5510
     11 N2         -0.8708    2.9268   -1.3826 N.am      1 <0>        -0.6536
     12 O1         -1.6315    4.6256   -2.6317 O.2       1 <0>        -0.5089
     13 C10        -3.9816    2.3636   -6.6802 C.3       1 <0>         0.1583
     14 N3         -5.4103    2.4850   -6.3798 N.pl3     1 <0>        -0.6063
     15 C11        -5.9528    3.7596   -5.9028 C.3       1 <0>         0.2267
     16 C12        -6.3771    4.5737   -7.0534 C.1       1 <0>        -0.2235
     17 C13        -6.7155    5.2230   -7.9711 C.1       1 <0>        -0.1662
     18 C14        -6.2553    1.3857   -6.5482 C.ar      1 <0>         0.2794
     19 C15        -5.7416    0.1749   -6.9950 C.ar      1 <0>        -0.2136
     20 C16        -6.5798   -0.9102   -7.1600 C.ar      1 <0>         0.0306
     21 C17        -7.9292   -0.7923   -6.8814 C.ar      1 <0>        -0.7290
     22 C18        -8.4438    0.4117   -6.4365 C.ar      1 <0>         0.0353
     23 C19        -7.6103    1.4992   -6.2639 C.ar      1 <0>        -0.2099
     24 S1         -8.9952   -2.1789   -7.0944 S.o2      1 <0>         2.6766
     25 O2        -10.3035   -1.6594   -7.2882 O.2       1 <0>        -0.9363
     26 O3         -8.3667   -3.0328   -8.0405 O.2       1 <0>        -0.9326
     27 N4         -9.0209   -3.0020   -5.6577 N.pl3     1 <0>        -0.8284
     28 C20       -10.1213   -3.1551   -4.8590 C.2       1 <0>         0.0458
     29 C21        -9.8011   -3.8735   -3.7712 C.2       1 <0>        -0.1577
     30 C22        -8.3792   -4.2080   -3.8822 C.ar      1 <0>        -0.0912
     31 C23        -7.9395   -3.6393   -5.0917 C.ar      1 <0>         0.1007
     32 C24        -6.6121   -3.7974   -5.4760 C.ar      1 <0>        -0.1259
     33 C25        -5.7474   -4.5089   -4.6733 C.ar      1 <0>        -0.0895
     34 C26        -6.1869   -5.0709   -3.4829 C.ar      1 <0>        -0.1325
     35 C27        -7.4848   -4.9207   -3.0818 C.ar      1 <0>        -0.0718
     36 H1          0.0021   -0.0041    0.0020 H         1 <0>         0.1069
     37 H2          1.0099    1.4631    0.0003 H         1 <0>         0.0952
     38 H3         -0.5229    1.4373    0.9048 H         1 <0>         0.0950
     39 H4         -2.2695   -0.9098   -3.8746 H         1 <0>         0.1435
     40 H5         -3.4651   -0.1569   -5.8791 H         1 <0>         0.1359
     41 H6         -2.8845    3.9233   -4.7760 H         1 <0>         0.1366
     42 H7         -0.4967    3.5327   -0.7240 H         1 <0>         0.4205
     43 H8         -3.5965    3.3283   -7.0106 H         1 <0>         0.0943
     44 H9         -3.8377    1.6254   -7.4692 H         1 <0>         0.0954
     45 H10        -6.8094    3.5705   -5.2559 H         1 <0>         0.1040
     46 H11        -5.1855    4.2941   -5.3427 H         1 <0>         0.1038
     47 H12        -7.0181    5.8037   -8.7919 H         1 <0>         0.2191
     48 H13        -4.6880    0.0823   -7.2134 H         1 <0>         0.1369
     49 H14        -6.1811   -1.8519   -7.5073 H         1 <0>         0.1401
     50 H15        -9.4982    0.5004   -6.2198 H         1 <0>         0.1408
     51 H16        -8.0121    2.4379   -5.9121 H         1 <0>         0.1349
     52 H17       -11.1022   -2.7566   -5.0721 H         1 <0>         0.1907
     53 H18       -10.4656   -4.1518   -2.9666 H         1 <0>         0.1581
     54 H19        -6.2606   -3.3641   -6.4008 H         1 <0>         0.1255
     55 H20        -4.7171   -4.6308   -4.9736 H         1 <0>         0.1329
     56 H21        -5.4963   -5.6260   -2.8653 H         1 <0>         0.1286
     57 H22        -7.8201   -5.3620   -2.1549 H         1 <0>         0.1282
@<TRIPOS>BOND
     1    1   36 1
     2    1   37 1
     3    1   38 1
     4    1    2 1
     5    2    3 2
     6    2   11 1
     7    3    4 1
     8    4    9 ar
     9    4    5 ar
    10    5    6 ar
    11    5   39 1
    12    6    7 ar
    13    6   40 1
    14    7    8 ar
    15    7   13 1
    16    8    9 ar
    17    8   41 1
    18    9   10 1
    19   10   12 2
    20   10   11 am
    21   11   42 1
    22   13   14 1
    23   13   43 1
    24   13   44 1
    25   14   15 1
    26   14   18 1
    27   15   16 1
    28   15   45 1
    29   15   46 1
    30   16   17 3
    31   17   47 1
    32   18   23 ar
    33   18   19 ar
    34   19   20 ar
    35   19   48 1
    36   20   21 ar
    37   20   49 1
    38   21   22 ar
    39   21   24 1
    40   22   23 ar
    41   22   50 1
    42   23   51 1
    43   24   25 2
    44   24   26 2
    45   24   27 1
    46   27   31 1
    47   27   28 1
    48   28   29 2
    49   28   52 1
    50   29   30 1
    51   29   53 1
    52   30   35 ar
    53   30   31 ar
    54   31   32 ar
    55   32   33 ar
    56   32   54 1
    57   33   34 ar
    58   33   55 1
    59   34   35 ar
    60   34   56 1
    61   35   57 1
@<TRIPOS>MOLECULE
CHEMBL57002
   56    60     0     0     0
SMALL
USER_CHARGES

@<TRIPOS>ATOM
      1 C1          1.3854   -2.7322    2.0926 C.3       1 <0>         0.1094
      2 N1          0.9222   -1.3543    2.2749 N.pl3     1 <0>        -0.6638
      3 C2          0.0239   -0.7471    1.2898 C.3       1 <0>         0.1701
      4 C3         -1.4009   -1.1142    1.6158 C.ar      1 <0>        -0.0381
      5 C4         -2.1842   -0.2513    2.3592 C.ar      1 <0>        -0.1194
      6 C5         -3.4911   -0.5880    2.6583 C.ar      1 <0>        -0.0234
      7 C6         -4.0149   -1.7875    2.2135 C.ar      1 <0>        -0.6860
      8 C7         -3.2319   -2.6500    1.4693 C.ar      1 <0>        -0.0220
      9 C8         -1.9263   -2.3113    1.1666 C.ar      1 <0>        -0.1252
     10 S1         -5.6804   -2.2172    2.5957 S.o2      1 <0>         2.6856
     11 O1         -5.7891   -3.6224    2.4145 O.2       1 <0>        -0.9362
     12 O2         -5.9913   -1.5817    3.8280 O.2       1 <0>        -0.9334
     13 N2         -6.6433   -1.5159    1.4453 N.pl3     1 <0>        -1.0132
     14 C9         -7.0927   -0.1218    1.5826 C.3       1 <0>         0.0948
     15 C10        -6.7877    0.6178    0.2758 C.3       1 <0>        -0.0232
     16 N3         -7.3939   -0.1066   -0.8484 N.4       1 <0>        -0.5030
     17 C11        -6.7690   -1.4280   -0.9872 C.3       1 <0>        -0.0223
     18 C12        -7.0685   -2.2672    0.2542 C.3       1 <0>         0.0925
     19 C13         1.3356   -0.6223    3.3839 C.ar      1 <0>         0.1644
     20 C14         2.4100    0.2506    3.3005 C.ar      1 <0>        -0.0949
     21 C15         2.8603    1.0026    4.3812 C.ar      1 <0>        -0.1053
     22 C16         2.2311    0.8998    5.6100 C.ar      1 <0>         0.1481
     23 C17         1.1558    0.0233    5.6820 C.ar      1 <0>        -0.1011
     24 C18         0.6689   -0.7441    4.6222 C.ar      1 <0>        -0.0349
     25 C19        -0.4336   -1.5704    4.8800 C.ar      1 <0>        -0.0521
     26 C20        -0.9761   -1.5811    6.1390 C.ar      1 <0>        -0.1335
     27 C21        -0.4843   -0.8056    7.1862 C.ar      1 <0>        -0.0038
     28 C22         0.6116    0.0150    6.9765 C.ar      1 <0>        -0.1605
     29 C23         1.4398    0.9670    7.7228 C.2       1 <0>         0.5739
     30 O3          1.3086    1.2628    8.8964 O.2       1 <0>        -0.4857
     31 N4          2.3795    1.4614    6.8746 N.am      1 <0>        -0.6550
     32 H1          2.3119   -2.7310    1.5185 H         1 <0>         0.0459
     33 H2          1.5622   -3.1880    3.0668 H         1 <0>         0.0603
     34 H3          0.6267   -3.3026    1.5569 H         1 <0>         0.0588
     35 H4          0.1349    0.3369    1.3164 H         1 <0>         0.0837
     36 H5          0.2749   -1.1138    0.2945 H         1 <0>         0.0848
     37 H6         -1.7750    0.6858    2.7067 H         1 <0>         0.1329
     38 H7         -4.1029    0.0859    3.2397 H         1 <0>         0.1367
     39 H8         -3.6410   -3.5873    1.1221 H         1 <0>         0.1411
     40 H9         -1.3157   -2.9835    0.5821 H         1 <0>         0.1355
     41 H10        -8.1656   -0.1000    1.7740 H         1 <0>         0.1064
     42 H11        -6.5611    0.3550    2.4060 H         1 <0>         0.1327
     43 H12        -7.2002    1.6255    0.3237 H         1 <0>         0.1492
     44 H13        -5.7085    0.6731    0.1329 H         1 <0>         0.1364
     45 H14        -8.3824   -0.2193   -0.6804 H         1 <0>         0.4309
     46 H15        -7.1678   -1.9278   -1.8700 H         1 <0>         0.1496
     47 H16        -5.6904   -1.3108   -1.0919 H         1 <0>         0.1361
     48 H17        -6.5209   -3.2081    0.1998 H         1 <0>         0.1376
     49 H18        -8.1389   -2.4657    0.3091 H         1 <0>         0.1051
     50 H19         2.9205    0.3510    2.3540 H         1 <0>         0.1333
     51 H20         3.7027    1.6677    4.2612 H         1 <0>         0.1357
     52 H21        -0.8497   -2.1890    4.0985 H         1 <0>         0.1308
     53 H22        -1.8254   -2.2210    6.3276 H         1 <0>         0.1326
     54 H23        -0.9493   -0.8513    8.1599 H         1 <0>         0.1400
     55 H24         3.0570    2.1122    7.1162 H         1 <0>         0.4251
     56 H25        -7.2577    0.4195   -1.6986 H         1 <0>         0.4358
@<TRIPOS>BOND
     1    1    2 1
     2    1   32 1
     3    1   33 1
     4    1   34 1
     5    2    3 1
     6    2   19 1
     7    3    4 1
     8    3   35 1
     9    3   36 1
    10    4    9 ar
    11    4    5 ar
    12    5    6 ar
    13    5   37 1
    14    6    7 ar
    15    6   38 1
    16    7    8 ar
    17    7   10 1
    18    8    9 ar
    19    8   39 1
    20    9   40 1
    21   10   11 2
    22   10   12 2
    23   10   13 1
    24   13   18 1
    25   13   14 1
    26   14   15 1
    27   14   41 1
    28   14   42 1
    29   15   16 1
    30   15   43 1
    31   15   44 1
    32   16   17 1
    33   16   45 1
    34   16   56 1
    35   17   18 1
    36   17   46 1
    37   17   47 1
    38   18   48 1
    39   18   49 1
    40   19   24 ar
    41   19   20 ar
    42   20   21 ar
    43   20   50 1
    44   21   22 ar
    45   21   51 1
    46   22   31 1
    47   22   23 ar
    48   23   28 ar
    49   23   24 ar
    50   24   25 ar
    51   25   26 ar
    52   25   52 1
    53   26   27 ar
    54   26   53 1
    55   27   28 ar
    56   27   54 1
    57   28   29 1
    58   29   30 2
    59   29   31 am
    60   31   55 1
@<TRIPOS>MOLECULE
CHEMBL57002__1
   55    59     0     0     0
SMALL
USER_CHARGES

@<TRIPOS>ATOM
      1 C1         -0.0178    1.4608    0.0101 C.3       1 <0>         0.1127
      2 N1          0.0021   -0.0041    0.0020 N.pl3     1 <0>        -0.6671
      3 C2          0.0241   -0.7433    1.2666 C.3       1 <0>         0.1735
      4 C3         -1.3889   -1.0161    1.7137 C.ar      1 <0>        -0.0514
      5 C4         -2.0473   -0.1051    2.5184 C.ar      1 <0>        -0.1276
      6 C5         -3.3435   -0.3554    2.9285 C.ar      1 <0>        -0.0200
      7 C6         -3.9814   -1.5164    2.5336 C.ar      1 <0>        -0.6746
      8 C7         -3.3234   -2.4270    1.7282 C.ar      1 <0>        -0.0189
      9 C8         -2.0287   -2.1747    1.3145 C.ar      1 <0>        -0.1210
     10 S1         -5.6332   -1.8359    3.0573 S.o2      1 <0>         2.6872
     11 O1         -5.8118   -3.2445    3.0010 O.2       1 <0>        -0.9537
     12 O2         -5.8326   -1.0898    4.2501 O.2       1 <0>        -0.9543
     13 N2         -6.6428   -1.1849    1.9174 N.pl3     1 <0>        -0.9988
     14 C9         -7.1088    0.2057    2.0276 C.3       1 <0>         0.1208
     15 C10        -8.6348    0.2203    1.8891 C.3       1 <0>         0.0448
     16 N3         -9.0172   -0.4664    0.6480 N.3       1 <0>        -0.6880
     17 C11        -8.6239   -1.8815    0.6791 C.3       1 <0>         0.0448
     18 C12        -7.0925   -1.9802    0.7648 C.3       1 <0>         0.1206
     19 C13         0.0000   -0.6933   -1.2068 C.ar      1 <0>         0.1742
     20 C14         1.1890   -1.0347   -1.8337 C.ar      1 <0>        -0.0998
     21 C15         1.2375   -1.7222   -3.0425 C.ar      1 <0>        -0.1026
     22 C16         0.0653   -2.0981   -3.6761 C.ar      1 <0>         0.1410
     23 C17        -1.1196   -1.7517   -3.0390 C.ar      1 <0>        -0.0987
     24 C18        -1.2124   -1.0687   -1.8249 C.ar      1 <0>        -0.0371
     25 C19        -2.4977   -0.8113   -1.3286 C.ar      1 <0>        -0.0432
     26 C20        -3.5850   -1.2407   -2.0449 C.ar      1 <0>        -0.1381
     27 C21        -3.4782   -1.9268   -3.2523 C.ar      1 <0>        -0.0005
     28 C22        -2.2265   -2.1902   -3.7834 C.ar      1 <0>        -0.1670
     29 C23        -1.6375   -2.8477   -4.9539 C.2       1 <0>         0.5752
     30 O3         -2.2519   -3.3734   -5.8640 O.2       1 <0>        -0.4923
     31 N4         -0.2853   -2.7672   -4.8447 N.am      1 <0>        -0.6549
     32 H1          1.0048    1.8381    0.0023 H         1 <0>         0.0424
     33 H2         -0.5450    1.8219   -0.8730 H         1 <0>         0.0573
     34 H3         -0.5280    1.8123    0.9069 H         1 <0>         0.0604
     35 H4          0.5496   -1.6879    1.1262 H         1 <0>         0.0809
     36 H5          0.5371   -0.1514    2.0246 H         1 <0>         0.0858
     37 H6         -1.5489    0.8020    2.8269 H         1 <0>         0.1317
     38 H7         -3.8577    0.3560    3.5577 H         1 <0>         0.1385
     39 H8         -3.8216   -3.3342    1.4199 H         1 <0>         0.1377
     40 H9         -1.5158   -2.8843    0.6822 H         1 <0>         0.1285
     41 H10        -6.8254    0.6109    2.9990 H         1 <0>         0.0963
     42 H11        -6.6633    0.8052    1.2337 H         1 <0>         0.0783
     43 H12        -9.0822   -0.2919    2.7409 H         1 <0>         0.0390
     44 H13        -8.9874    1.2512    1.8578 H         1 <0>         0.0898
     45 H14       -10.0058   -0.3697    0.4711 H         1 <0>         0.3490
     46 H15        -9.0715   -2.3644    1.5477 H         1 <0>         0.0394
     47 H16        -8.9686   -2.3748   -0.2297 H         1 <0>         0.0899
     48 H17        -6.6455   -1.5869   -0.1482 H         1 <0>         0.0781
     49 H18        -6.7984   -3.0209    0.9009 H         1 <0>         0.0969
     50 H19         2.1194   -0.7540   -1.3625 H         1 <0>         0.1329
     51 H20         2.1916   -1.9628   -3.4877 H         1 <0>         0.1336
     52 H21        -2.6296   -0.2830   -0.3959 H         1 <0>         0.1355
     53 H22        -4.5711   -1.0376   -1.6541 H         1 <0>         0.1320
     54 H23        -4.3677   -2.2434   -3.7767 H         1 <0>         0.1381
     55 H24         0.3453   -3.1248   -5.4893 H         1 <0>         0.4231
@<TRIPOS>BOND
     1    1    2 1
     2    1   32 1
     3    1   33 1
     4    1   34 1
     5    2    3 1
     6    2   19 1
     7    3    4 1
     8    3   35 1
     9    3   36 1
    10    4    9 ar
    11    4    5 ar
    12    5    6 ar
    13    5   37 1
    14    6    7 ar
    15    6   38 1
    16    7    8 ar
    17    7   10 1
    18    8    9 ar
    19    8   39 1
    20    9   40 1
    21   10   11 2
    22   10   12 2
    23   10   13 1
    24   13   18 1
    25   13   14 1
    26   14   15 1
    27   14   41 1
    28   14   42 1
    29   15   16 1
    30   15   43 1
    31   15   44 1
    32   16   17 1
    33   16   45 1
    34   17   18 1
    35   17   46 1
    36   17   47 1
    37   18   48 1
    38   18   49 1
    39   19   24 ar
    40   19   20 ar
    41   20   21 ar
    42   20   50 1
    43   21   22 ar
    44   21   51 1
    45   22   31 1
    46   22   23 ar
    47   23   28 ar
    48   23   24 ar
    49   24   25 ar
    50   25   26 ar
    51   25   52 1
    52   26   27 ar
    53   26   53 1
    54   27   28 ar
    55   27   54 1
    56   28   29 1
    57   29   30 2
    58   29   31 am
    59   31   55 1
@<TRIPOS>MOLECULE
CHEMBL266066
   56    59     0     0     0
SMALL
USER_CHARGES

@<TRIPOS>ATOM
      1 C1         -3.0009   -0.8810   -1.3772 C.3       1 <0>        -0.1253
      2 C2         -2.3070    0.3696   -1.8521 C.ar      1 <0>        -0.0285
      3 C3         -1.6097    0.3513   -3.0394 C.ar      1 <0>        -0.1101
      4 C4         -0.9665    1.5088   -3.4814 C.ar      1 <0>         0.1624
      5 C5         -1.0419    2.6838   -2.7006 C.ar      1 <0>        -0.2047
      6 C6         -1.7525    2.6812   -1.5025 C.ar      1 <0>        -0.0202
      7 C7         -2.3834    1.5276   -1.0898 C.ar      1 <0>        -0.1357
      8 C8         -3.1585    1.5215    0.2025 C.3       1 <0>         0.1648
      9 N1         -3.0305    2.8269    0.8549 N.pl3     1 <0>        -0.6096
     10 C9         -3.9908    3.8923    0.5564 C.3       1 <0>         0.2255
     11 C10        -5.1223    3.8098    1.4943 C.1       1 <0>        -0.2213
     12 C11        -6.0248    3.7441    2.2423 C.1       1 <0>        -0.1680
     13 C12        -1.9976    3.0548    1.7575 C.ar      1 <0>         0.2726
     14 C13        -1.0184    2.0833    1.9523 C.ar      1 <0>        -0.2070
     15 C14        -0.0009    2.2994    2.8367 C.ar      1 <0>        -0.0086
     16 C15         0.0632    3.4995    3.5519 C.ar      1 <0>        -0.2355
     17 C16        -0.9193    4.4788    3.3584 C.ar      1 <0>         0.2148
     18 C17        -1.9417    4.2544    2.4590 C.ar      1 <0>        -0.2426
     19 F1         -0.8636    5.6405    4.0459 F         1 <0>        -0.1116
     20 C18         1.1611    3.7328    4.5069 C.2       1 <0>         0.5677
     21 O1          1.2151    4.7769    5.1280 O.2       1 <0>        -0.5269
     22 N2          2.1052    2.7889    4.6920 N.am      1 <0>        -0.7286
     23 C19         3.1966    3.0208    5.6414 C.3       1 <0>         0.2157
     24 C20         4.1090    1.8216    5.6606 C.2       1 <0>        -0.2278
     25 C21         5.2108    1.5583    4.9124 C.2       1 <0>         0.0576
     26 N3          5.8286    0.4164    5.1401 N.2       1 <0>        -0.5179
     27 C22         5.3964   -0.4232    6.0475 C.2       1 <0>         0.0339
     28 S1          4.0452    0.3564    6.6793 S.3       1 <0>         0.1249
     29 C23        -0.3530    3.8856   -3.1940 C.2       1 <0>         0.5495
     30 N4          0.3105    3.7850   -4.3693 N.am      1 <0>        -0.6539
     31 C24         0.3296    2.6121   -5.0548 C.2       1 <0>         0.3996
     32 N5         -0.2684    1.5353   -4.6443 N.2       1 <0>        -0.5233
     33 C25         1.0839    2.5582   -6.3583 C.3       1 <0>        -0.1134
     34 O2         -0.3789    4.9304   -2.5699 O.2       1 <0>        -0.5070
     35 H1         -4.0506   -0.8471   -1.6690 H         1 <0>         0.0810
     36 H2         -2.5266   -1.7530   -1.8274 H         1 <0>         0.0754
     37 H3         -2.9275   -0.9474   -0.2917 H         1 <0>         0.0738
     38 H4         -1.5604   -0.5544   -3.6257 H         1 <0>         0.1417
     39 H5         -1.8119    3.5778   -0.9034 H         1 <0>         0.1394
     40 H6         -4.2095    1.3205   -0.0051 H         1 <0>         0.0976
     41 H7         -2.7633    0.7467    0.8595 H         1 <0>         0.0983
     42 H8         -3.5025    4.8612    0.6605 H         1 <0>         0.1052
     43 H9         -4.3557    3.7770   -0.4642 H         1 <0>         0.1050
     44 H10        -6.8320    3.6853    2.9112 H         1 <0>         0.2186
     45 H11        -1.0645    1.1553    1.4018 H         1 <0>         0.1353
     46 H12         0.7552    1.5425    2.9843 H         1 <0>         0.1323
     47 H13        -2.6996    5.0078    2.3029 H         1 <0>         0.1428
     48 H14         2.0620    1.9561    4.1966 H         1 <0>         0.4003
     49 H15         3.7613    3.9022    5.3375 H         1 <0>         0.0966
     50 H16         2.7839    3.1795    6.6377 H         1 <0>         0.0876
     51 H17         5.5646    2.2525    4.1645 H         1 <0>         0.1748
     52 H18         5.8096   -1.3814    6.3260 H         1 <0>         0.2203
     53 H19         2.1163    2.2645   -6.1687 H         1 <0>         0.1001
     54 H20         0.6146    1.8299   -7.0198 H         1 <0>         0.1053
     55 H21         1.0664    3.5410   -6.8292 H         1 <0>         0.0876
     56 H22         0.7766    4.5574   -4.7257 H         1 <0>         0.4196
@<TRIPOS>BOND
     1    1   35 1
     2    1   36 1
     3    1   37 1
     4    1    2 1
     5    2    7 ar
     6    2    3 ar
     7    3   38 1
     8    3    4 ar
     9    4    5 ar
    10    4   32 1
    11    5   29 1
    12    5    6 ar
    13    6   39 1
    14    6    7 ar
    15    7    8 1
    16    8    9 1
    17    8   40 1
    18    8   41 1
    19    9   10 1
    20    9   13 1
    21   10   11 1
    22   10   42 1
    23   10   43 1
    24   11   12 3
    25   12   44 1
    26   13   18 ar
    27   13   14 ar
    28   14   15 ar
    29   14   45 1
    30   15   16 ar
    31   15   46 1
    32   16   17 ar
    33   16   20 1
    34   17   18 ar
    35   17   19 1
    36   18   47 1
    37   20   21 2
    38   20   22 am
    39   22   23 1
    40   22   48 1
    41   23   24 1
    42   23   49 1
    43   23   50 1
    44   24   28 1
    45   24   25 2
    46   25   26 1
    47   25   51 1
    48   26   27 2
    49   27   28 1
    50   27   52 1
    51   29   34 2
    52   29   30 am
    53   30   31 1
    54   30   56 1
    55   31   32 2
    56   31   33 1
    57   33   53 1
    58   33   54 1
    59   33   55 1
@<TRIPOS>MOLECULE
CHEMBL278847
   31    32     0     0     0
SMALL
USER_CHARGES

@<TRIPOS>ATOM
      1 C1         -0.1713   -1.6908    0.8828 C.3       1 <0>        -0.1544
      2 C2         -0.0179   -0.3857    0.0991 C.3       1 <0>        -0.1059
      3 C3          0.8044   -0.6366   -1.1386 C.ar      1 <0>         0.2555
      4 C4          2.1959   -0.5984   -1.0811 C.ar      1 <0>        -0.1912
      5 C5          2.9183   -0.8394   -2.2645 C.ar      1 <0>         0.5404
      6 N1          2.2497   -1.0925   -3.3837 N.ar      1 <0>        -0.5743
      7 C6          0.9254   -1.1186   -3.3903 C.ar      1 <0>         0.6667
      8 N2          0.2144   -0.9014   -2.2929 N.ar      1 <0>        -0.5690
      9 N3          0.2650   -1.3854   -4.5762 N.pl3     1 <0>        -0.7899
     10 N4          4.3014   -0.8127   -2.2621 N.pl3     1 <0>        -0.7720
     11 C7          2.8972   -0.3108    0.1933 C.ar      1 <0>        -0.0551
     12 C8          2.8219    0.9599    0.7620 C.ar      1 <0>        -0.0937
     13 C9          3.4760    1.2224    1.9483 C.ar      1 <0>        -0.0946
     14 C10         4.2062    0.2278    2.5737 C.ar      1 <0>        -0.0864
     15 C11         4.2852   -1.0358    2.0140 C.ar      1 <0>        -0.0304
     16 C12         3.6292   -1.3112    0.8298 C.ar      1 <0>        -0.0974
     17 Cl1         5.2046   -2.2780    2.8047 Cl        1 <0>        -0.0450
     18 H1         -0.6053   -2.4537    0.2366 H         1 <0>         0.0629
     19 H2          0.8069   -2.0228    1.2307 H         1 <0>         0.0721
     20 H3         -0.8247   -1.5256    1.7394 H         1 <0>         0.0892
     21 H4         -1.0025   -0.0161   -0.1875 H         1 <0>         0.1052
     22 H5          0.4811    0.3561    0.7227 H         1 <0>         0.1227
     23 H6          0.7715   -1.5500   -5.3869 H         1 <0>         0.4458
     24 H7         -0.7045   -1.4079   -4.5970 H         1 <0>         0.4308
     25 H8          4.7814   -0.6267   -1.4400 H         1 <0>         0.4322
     26 H9          4.7911   -0.9800   -3.0825 H         1 <0>         0.4294
     27 H10         2.2528    1.7377    0.2746 H         1 <0>         0.1354
     28 H11         3.4180    2.2066    2.3893 H         1 <0>         0.1456
     29 H12         4.7167    0.4380    3.5019 H         1 <0>         0.1451
     30 H13         3.6876   -2.2985    0.3958 H         1 <0>         0.1381
     31 H14        -0.7540   -0.9336   -2.3376 H         1 <0>         0.4423
@<TRIPOS>BOND
     1    1    2 1
     2    1   18 1
     3    1   19 1
     4    1   20 1
     5    2    3 1
     6    2   21 1
     7    2   22 1
     8    3    8 ar
     9    3    4 ar
    10    4    5 ar
    11    4   11 1
    12    5    6 ar
    13    5   10 1
    14    6    7 ar
    15    7    8 ar
    16    7    9 1
    17    8   31 1
    18    9   23 1
    19    9   24 1
    20   10   25 1
    21   10   26 1
    22   11   16 ar
    23   11   12 ar
    24   12   13 ar
    25   12   27 1
    26   13   14 ar
    27   13   28 1
    28   14   15 ar
    29   14   29 1
    30   15   16 ar
    31   15   17 1
    32   16   30 1
@<TRIPOS>MOLECULE
CHEMBL278847__1
   30    31     0     0     0
SMALL
USER_CHARGES

@<TRIPOS>ATOM
      1 C1         -0.0187    1.5258    0.0104 C.3       1 <0>        -0.1418
      2 C2          0.0021   -0.0041    0.0020 C.3       1 <0>        -0.0813
      3 C3         -1.4117   -0.5257    0.0127 C.ar      1 <0>         0.2694
      4 C4         -2.0643   -0.7710    1.2190 C.ar      1 <0>        -0.2869
      5 C5         -3.3840   -1.2577    1.1753 C.ar      1 <0>         0.4979
      6 N1         -3.9530   -1.4633   -0.0069 N.ar      1 <0>        -0.6303
      7 C6         -3.2930   -1.2155   -1.1284 C.ar      1 <0>         0.6111
      8 N2         -2.0514   -0.7515   -1.1233 N.ar      1 <0>        -0.6025
      9 N3         -3.9198   -1.4427   -2.3404 N.pl3     1 <0>        -0.8184
     10 N4         -4.0767   -1.5182    2.3441 N.pl3     1 <0>        -0.8302
     11 C7         -1.3861   -0.5261    2.5146 C.ar      1 <0>         0.0023
     12 C8         -0.2671   -1.2773    2.8714 C.ar      1 <0>        -0.1063
     13 C9          0.3608   -1.0453    4.0780 C.ar      1 <0>        -0.1003
     14 C10        -0.1179   -0.0696    4.9339 C.ar      1 <0>        -0.1128
     15 C11        -1.2288    0.6793    4.5856 C.ar      1 <0>        -0.0292
     16 C12        -1.8614    0.4596    3.3774 C.ar      1 <0>        -0.1106
     17 Cl1        -1.8238    1.9010    5.6660 Cl        1 <0>        -0.0678
     18 H1          1.0039    1.9031    0.0027 H         1 <0>         0.0658
     19 H2         -0.5459    1.8868   -0.8726 H         1 <0>         0.0595
     20 H3         -0.5289    1.8773    0.9072 H         1 <0>         0.0560
     21 H4          0.5123   -0.3556   -0.8948 H         1 <0>         0.0876
     22 H5          0.5293   -0.3651    0.8851 H         1 <0>         0.0876
     23 H6         -4.8295   -1.7787   -2.3605 H         1 <0>         0.4141
     24 H7         -3.4496   -1.2661   -3.1702 H         1 <0>         0.4161
     25 H8         -3.6530   -1.3654    3.2032 H         1 <0>         0.4127
     26 H9         -4.9860   -1.8535    2.3045 H         1 <0>         0.4082
     27 H10         0.1075   -2.0399    2.2046 H         1 <0>         0.1296
     28 H11         1.2277   -1.6269    4.3550 H         1 <0>         0.1349
     29 H12         0.3766    0.1082    5.8774 H         1 <0>         0.1341
     30 H13        -2.7254    1.0472    3.1042 H         1 <0>         0.1314
@<TRIPOS>BOND
     1    1    2 1
     2    1   18 1
     3    1   19 1
     4    1   20 1
     5    2    3 1
     6    2   21 1
     7    2   22 1
     8    3    8 ar
     9    3    4 ar
    10    4    5 ar
    11    4   11 1
    12    5    6 ar
    13    5   10 1
    14    6    7 ar
    15    7    8 ar
    16    7    9 1
    17    9   23 1
    18    9   24 1
    19   10   25 1
    20   10   26 1
    21   11   16 ar
    22   11   12 ar
    23   12   13 ar
    24   12   27 1
    25   13   14 ar
    26   13   28 1
    27   14   15 ar
    28   14   29 1
    29   15   16 ar
    30   15   17 1
    31   16   30 1
@<TRIPOS>MOLECULE
CHEMBL495125
   29    31     0     0     0
SMALL
USER_CHARGES

@<TRIPOS>ATOM
      1 C1         -0.0184    1.5028    0.0103 C.3       1 <0>        -0.0751
      2 C2          0.0021   -0.0041    0.0020 C.2       1 <0>        -0.1017
      3 C3         -1.0435   -0.8524    0.0019 C.2       1 <0>        -0.1163
      4 C4         -0.7905   -2.2858   -0.0074 C.2       1 <0>        -0.2771
      5 C5         -1.7232   -3.3687   -0.0089 C.2       1 <0>         0.5690
      6 O1         -2.9226   -3.1505   -0.0026 O.2       1 <0>        -0.4958
      7 N1         -1.2605   -4.6322   -0.0179 N.am      1 <0>        -0.6536
      8 H1         -1.8907   -5.3696   -0.0193 H         1 <0>         0.4177
      9 C6          0.0777   -4.8960   -0.0255 C.2       1 <0>         0.6575
     10 N2          0.9596   -3.9184   -0.0240 N.2       1 <0>        -0.5525
     11 C7          0.5698   -2.6486   -0.0157 C.2       1 <0>         0.1623
     12 S1          1.4163   -1.0891   -0.0179 S.3       1 <0>         0.1647
     13 N3          0.5109   -6.1985   -0.0346 N.pl3     1 <0>        -0.8104
     14 S2         -2.6942   -0.2363    0.0136 S.3       1 <0>         0.0592
     15 C8         -3.1021   -0.0776   -1.6932 C.ar      1 <0>        -0.0473
     16 C9         -2.1824   -0.4233   -2.6845 C.ar      1 <0>        -0.1819
     17 C10        -2.5408   -0.2843   -4.0083 C.ar      1 <0>         0.1167
     18 N4         -3.7351    0.1688   -4.3424 N.ar      1 <0>        -0.4940
     19 C11        -4.6327    0.5064   -3.4350 C.ar      1 <0>         0.1171
     20 C12        -4.3554    0.3917   -2.0894 C.ar      1 <0>        -0.1580
     21 H2          1.0042    1.8801    0.0026 H         1 <0>         0.0813
     22 H3         -0.5455    1.8639   -0.8728 H         1 <0>         0.0881
     23 H4         -0.5286    1.8543    0.9071 H         1 <0>         0.0945
     24 H5         -0.1331   -6.9239   -0.0355 H         1 <0>         0.4197
     25 H6          1.4611   -6.3936   -0.0400 H         1 <0>         0.4330
     26 H7         -1.2036   -0.7942   -2.4181 H         1 <0>         0.1275
     27 H8         -1.8355   -0.5490   -4.7822 H         1 <0>         0.1552
     28 H9         -5.5981    0.8731   -3.7509 H         1 <0>         0.1607
     29 H10        -5.0959    0.6653   -1.3524 H         1 <0>         0.1394
@<TRIPOS>BOND
     1    1    2 1
     2    1   21 1
     3    1   22 1
     4    1   23 1
     5    2   12 1
     6    2    3 2
     7    3    4 1
     8    3   14 1
     9    4   11 2
    10    4    5 1
    11    5    6 2
    12    5    7 am
    13    7    8 1
    14    7    9 1
    15    9   10 2
    16    9   13 1
    17   10   11 1
    18   11   12 1
    19   13   24 1
    20   13   25 1
    21   14   15 1
    22   15   20 ar
    23   15   16 ar
    24   16   17 ar
    25   16   26 1
    26   17   18 ar
    27   17   27 1
    28   18   19 ar
    29   19   20 ar
    30   19   28 1
    31   20   29 1
@<TRIPOS>MOLECULE
CHEMBL495124
   36    39     0     0     0
SMALL
USER_CHARGES

@<TRIPOS>ATOM
      1 C1         -0.0184    1.5028    0.0103 C.3       1 <0>        -0.0740
      2 C2          0.0021   -0.0041    0.0020 C.2       1 <0>        -0.1041
      3 C3         -1.0436   -0.8524    0.0020 C.2       1 <0>        -0.1099
      4 C4         -0.7905   -2.2858   -0.0069 C.2       1 <0>        -0.2756
      5 C5         -1.7231   -3.3688   -0.0083 C.2       1 <0>         0.5683
      6 O1         -2.9225   -3.1506   -0.0023 O.2       1 <0>        -0.4933
      7 N1         -1.2604   -4.6323   -0.0168 N.am      1 <0>        -0.6540
      8 H1         -1.8906   -5.3697   -0.0180 H         1 <0>         0.4171
      9 C6          0.0778   -4.8960   -0.0241 C.2       1 <0>         0.6564
     10 N2          0.9597   -3.9184   -0.0230 N.2       1 <0>        -0.5528
     11 C7          0.5699   -2.6486   -0.0148 C.2       1 <0>         0.1606
     12 S1          1.4163   -1.0891   -0.0179 S.3       1 <0>         0.1588
     13 N3          0.5110   -6.1986   -0.0321 N.pl3     1 <0>        -0.8113
     14 S2         -2.6943   -0.2363    0.0131 S.3       1 <0>         0.0366
     15 C8         -3.1018   -0.0782   -1.6938 C.ar      1 <0>        -0.0828
     16 C9         -2.1591   -0.4328   -2.6677 C.ar      1 <0>        -0.1180
     17 C10        -2.4467   -0.3214   -3.9909 C.ar      1 <0>        -0.0877
     18 C11        -3.7057    0.1555   -4.3973 C.ar      1 <0>        -0.0594
     19 C12        -4.0304    0.2804   -5.7587 C.ar      1 <0>        -0.1023
     20 C13        -5.2579    0.7450   -6.1195 C.ar      1 <0>        -0.1206
     21 C14        -6.2019    1.1007   -5.1579 C.ar      1 <0>        -0.1124
     22 C15        -5.9234    0.9938   -3.8301 C.ar      1 <0>        -0.1076
     23 C16        -4.6661    0.5169   -3.4191 C.ar      1 <0>        -0.0311
     24 C17        -4.3471    0.3879   -2.0579 C.ar      1 <0>        -0.0922
     25 H2          1.0042    1.8801    0.0026 H         1 <0>         0.0797
     26 H3         -0.5455    1.8639   -0.8728 H         1 <0>         0.0887
     27 H4         -0.5286    1.8543    0.9071 H         1 <0>         0.0938
     28 H5         -0.1330   -6.9239   -0.0326 H         1 <0>         0.4193
     29 H6          1.4612   -6.3936   -0.0373 H         1 <0>         0.4326
     30 H7         -1.1902   -0.7995   -2.3624 H         1 <0>         0.1179
     31 H8         -1.7093   -0.5985   -4.7297 H         1 <0>         0.1273
     32 H9         -3.3090    0.0093   -6.5154 H         1 <0>         0.1257
     33 H10        -5.5040    0.8396   -7.1668 H         1 <0>         0.1229
     34 H11        -7.1685    1.4670   -5.4710 H         1 <0>         0.1237
     35 H12        -6.6643    1.2735   -3.0958 H         1 <0>         0.1280
     36 H13        -5.0705    0.6552   -1.3018 H         1 <0>         0.1320
@<TRIPOS>BOND
     1    1    2 1
     2    1   25 1
     3    1   26 1
     4    1   27 1
     5    2   12 1
     6    2    3 2
     7    3    4 1
     8    3   14 1
     9    4   11 2
    10    4    5 1
    11    5    6 2
    12    5    7 am
    13    7    8 1
    14    7    9 1
    15    9   10 2
    16    9   13 1
    17   10   11 1
    18   11   12 1
    19   13   28 1
    20   13   29 1
    21   14   15 1
    22   15   24 ar
    23   15   16 ar
    24   16   17 ar
    25   16   30 1
    26   17   18 ar
    27   17   31 1
    28   18   23 ar
    29   18   19 ar
    30   19   20 ar
    31   19   32 1
    32   20   21 ar
    33   20   33 1
    34   21   22 ar
    35   21   34 1
    36   22   23 ar
    37   22   35 1
    38   23   24 ar
    39   24   36 1
@<TRIPOS>MOLECULE
CHEMBL386442
   44    48     0     0     0
SMALL
USER_CHARGES

@<TRIPOS>ATOM
      1 C1         -0.0164    1.3572    0.0095 C.ar      1 <0>        -0.1123
      2 C2          1.1678    2.0906    0.0021 C.ar      1 <0>        -0.0962
      3 C3          2.3789    1.4652   -0.0133 C.ar      1 <0>        -0.1095
      4 C4          2.4358    0.0664   -0.0213 C.ar      1 <0>         0.0157
      5 C5          1.2328   -0.6829   -0.0134 C.ar      1 <0>        -0.0623
      6 C6          0.0021   -0.0041    0.0020 C.ar      1 <0>        -0.0976
      7 C7          1.2918   -2.0866   -0.0225 C.ar      1 <0>        -0.0467
      8 C8          2.4911   -2.7325   -0.0384 C.ar      1 <0>        -0.1198
      9 C9          3.6905   -2.0394   -0.0467 C.ar      1 <0>        -0.0573
     10 C10         3.7075   -0.6488   -0.0383 C.ar      1 <0>        -0.1785
     11 C11         5.1098   -0.2127   -0.0504 C.2       1 <0>         0.5259
     12 O1          5.4797    0.9448   -0.0471 O.2       1 <0>        -0.4398
     13 O2          5.9241   -1.2823   -0.0650 O.3       1 <0>        -0.2980
     14 C12         5.1348   -2.4750   -0.0643 C.3       1 <0>         0.2420
     15 C13         5.4413   -3.2948    1.1626 C.ar      1 <0>        -0.1049
     16 C14         4.4488   -4.0596    1.7472 C.ar      1 <0>        -0.0905
     17 C15         4.7270   -4.8115    2.8721 C.ar      1 <0>        -0.1429
     18 C16         6.0037   -4.7991    3.4150 C.ar      1 <0>         0.1191
     19 C17         6.9978   -4.0312    2.8263 C.ar      1 <0>        -0.1433
     20 C18         6.7158   -3.2851    1.6984 C.ar      1 <0>        -0.0707
     21 O3          6.2797   -5.5376    4.5220 O.3       1 <0>        -0.4981
     22 C19         5.4154   -3.2806   -1.3067 C.ar      1 <0>        -0.1043
     23 C20         4.4078   -4.0299   -1.8855 C.ar      1 <0>        -0.0908
     24 C21         4.6625   -4.7695   -3.0241 C.ar      1 <0>        -0.1430
     25 C22         5.9304   -4.7597   -3.5871 C.ar      1 <0>         0.1187
     26 C23         6.9396   -4.0066   -3.0046 C.ar      1 <0>        -0.1433
     27 C24         6.6784   -3.2646   -1.8690 C.ar      1 <0>        -0.0710
     28 O4          6.1836   -5.4868   -4.7069 O.3       1 <0>        -0.4982
     29 H1         -0.9634    1.8762    0.0259 H         1 <0>         0.1307
     30 H2          1.1258    3.1698    0.0083 H         1 <0>         0.1315
     31 H3          3.2896    2.0456   -0.0195 H         1 <0>         0.1401
     32 H4         -0.9241   -0.5595    0.0082 H         1 <0>         0.1358
     33 H5          0.3764   -2.6598   -0.0165 H         1 <0>         0.1452
     34 H6          2.5073   -3.8124   -0.0444 H         1 <0>         0.1420
     35 H7          3.4551   -4.0689    1.3241 H         1 <0>         0.1360
     36 H8          3.9513   -5.4083    3.3288 H         1 <0>         0.1351
     37 H9          7.9924   -4.0199    3.2471 H         1 <0>         0.1353
     38 H10         7.4906   -2.6906    1.2372 H         1 <0>         0.1352
     39 H11         6.5841   -6.4352    4.3301 H         1 <0>         0.3946
     40 H12         3.4209   -4.0372   -1.4469 H         1 <0>         0.1362
     41 H13         3.8753   -5.3552   -3.4755 H         1 <0>         0.1350
     42 H14         7.9275   -3.9974   -3.4409 H         1 <0>         0.1352
     43 H15         7.4625   -2.6748   -1.4177 H         1 <0>         0.1352
     44 H16         6.0294   -5.0057   -5.5314 H         1 <0>         0.3946
@<TRIPOS>BOND
     1    1    6 ar
     2    1    2 ar
     3    1   29 1
     4    2    3 ar
     5    2   30 1
     6    3    4 ar
     7    3   31 1
     8    4   10 ar
     9    4    5 ar
    10    5    6 ar
    11    5    7 ar
    12    6   32 1
    13    7    8 ar
    14    7   33 1
    15    8    9 ar
    16    8   34 1
    17    9   14 1
    18    9   10 ar
    19   10   11 1
    20   11   12 2
    21   11   13 1
    22   13   14 1
    23   14   15 1
    24   14   22 1
    25   15   20 ar
    26   15   16 ar
    27   16   17 ar
    28   16   35 1
    29   17   18 ar
    30   17   36 1
    31   18   19 ar
    32   18   21 1
    33   19   20 ar
    34   19   37 1
    35   20   38 1
    36   21   39 1
    37   22   27 ar
    38   22   23 ar
    39   23   24 ar
    40   23   40 1
    41   24   25 ar
    42   24   41 1
    43   25   26 ar
    44   25   28 1
    45   26   27 ar
    46   26   42 1
    47   27   43 1
    48   28   44 1
@<TRIPOS>MOLECULE
CHEMBL217765
   44    48     0     0     0
SMALL
USER_CHARGES

@<TRIPOS>ATOM
      1 C1          0.0675    1.4785    0.0841 C.ar      1 <0>        -0.1325
      2 C2          1.2281    2.1923    0.1234 C.ar      1 <0>        -0.0604
      3 C3          2.4732    1.5427    0.1057 C.ar      1 <0>        -0.0584
      4 C4          3.6940    2.2389    0.1164 C.ar      1 <0>        -0.0812
      5 C5          4.8628    1.5375    0.1043 C.ar      1 <0>        -0.1178
      6 C6          4.8805    0.1430    0.0883 C.ar      1 <0>        -0.0793
      7 C7          3.7178   -0.5654    0.0780 C.ar      1 <0>        -0.1124
      8 C8          2.5033    0.1321    0.0680 C.ar      1 <0>        -0.0075
      9 C9          1.2431   -0.6097    0.0084 C.ar      1 <0>        -0.1786
     10 C10         0.0537    0.0867    0.0235 C.ar      1 <0>        -0.0197
     11 C11         1.3371   -2.0806   -0.0757 C.2       1 <0>         0.5424
     12 O1          0.4144   -2.8054    0.2405 O.2       1 <0>        -0.4302
     13 O2          2.5217   -2.5746   -0.5300 O.3       1 <0>        -0.3490
     14 C12         3.7104   -2.0709    0.0854 C.3       1 <0>         0.2813
     15 C13         3.7767   -2.5605    1.5092 C.ar      1 <0>        -0.1383
     16 C14         4.4218   -1.8038    2.4698 C.ar      1 <0>        -0.0866
     17 C15         4.4844   -2.2505    3.7755 C.ar      1 <0>        -0.1436
     18 C16         3.8988   -3.4594    4.1226 C.ar      1 <0>         0.1215
     19 C17         3.2517   -4.2165    3.1570 C.ar      1 <0>        -0.1406
     20 C18         3.1874   -3.7629    1.8537 C.ar      1 <0>        -0.0721
     21 O3          3.9594   -3.9012    5.4063 O.3       1 <0>        -0.4973
     22 C19         4.9129   -2.5769   -0.6688 C.ar      1 <0>        -0.0850
     23 C20         4.7877   -2.9570   -1.9924 C.ar      1 <0>        -0.0552
     24 C21         5.8882   -3.4216   -2.6863 C.ar      1 <0>        -0.1362
     25 C22         7.1202   -3.5063   -2.0545 C.ar      1 <0>         0.1467
     26 C23         7.2439   -3.1239   -0.7261 C.ar      1 <0>        -0.1203
     27 C24         6.1405   -2.6548   -0.0379 C.ar      1 <0>        -0.0609
     28 Br1         8.9212   -3.2382    0.1397 Br        1 <0>        -0.0279
     29 O4          8.2043   -3.9636   -2.7350 O.3       1 <0>        -0.4841
     30 H1         -0.8728    2.0093    0.1052 H         1 <0>         0.1371
     31 H2          1.1897    3.2707    0.1682 H         1 <0>         0.1379
     32 H3          3.7061    3.3187    0.1337 H         1 <0>         0.1382
     33 H4          5.7992    2.0755    0.1069 H         1 <0>         0.1338
     34 H5          5.8254   -0.3798    0.0836 H         1 <0>         0.1337
     35 H6         -0.8858   -0.4448   -0.0113 H         1 <0>         0.1430
     36 H7          4.8776   -0.8628    2.1991 H         1 <0>         0.1321
     37 H8          4.9891   -1.6594    4.5254 H         1 <0>         0.1351
     38 H9          2.7951   -5.1580    3.4247 H         1 <0>         0.1353
     39 H10         2.6799   -4.3498    1.1025 H         1 <0>         0.1361
     40 H11         3.2199   -3.6108    5.9576 H         1 <0>         0.3944
     41 H12         3.8284   -2.8910   -2.4842 H         1 <0>         0.1429
     42 H13         5.7894   -3.7190   -3.7198 H         1 <0>         0.1446
     43 H14         6.2367   -2.3531    0.9947 H         1 <0>         0.1419
     44 H15         8.7056   -3.2712   -3.1871 H         1 <0>         0.3974
@<TRIPOS>BOND
     1    1   10 ar
     2    1    2 ar
     3    1   30 1
     4    2    3 ar
     5    2   31 1
     6    3    8 ar
     7    3    4 ar
     8    4    5 ar
     9    4   32 1
    10    5    6 ar
    11    5   33 1
    12    6    7 ar
    13    6   34 1
    14    7   14 1
    15    7    8 ar
    16    8    9 ar
    17    9   10 ar
    18    9   11 1
    19   10   35 1
    20   11   12 2
    21   11   13 1
    22   13   14 1
    23   14   15 1
    24   14   22 1
    25   15   20 ar
    26   15   16 ar
    27   16   17 ar
    28   16   36 1
    29   17   18 ar
    30   17   37 1
    31   18   19 ar
    32   18   21 1
    33   19   20 ar
    34   19   38 1
    35   20   39 1
    36   21   40 1
    37   22   27 ar
    38   22   23 ar
    39   23   24 ar
    40   23   41 1
    41   24   25 ar
    42   24   42 1
    43   25   26 ar
    44   25   29 1
    45   26   27 ar
    46   26   28 1
    47   27   43 1
    48   29   44 1
@<TRIPOS>MOLECULE
CHEMBL217765__1
   44    48     0     0     0
SMALL
USER_CHARGES

@<TRIPOS>ATOM
      1 C1          0.0675    1.4784    0.0841 C.ar      1 <0>        -0.1322
      2 C2          1.2280    2.1923    0.1233 C.ar      1 <0>        -0.0607
      3 C3          2.4732    1.5427    0.1057 C.ar      1 <0>        -0.0587
      4 C4          3.6940    2.2389    0.1164 C.ar      1 <0>        -0.0811
      5 C5          4.8627    1.5375    0.1043 C.ar      1 <0>        -0.1189
      6 C6          4.8804    0.1430    0.0882 C.ar      1 <0>        -0.0787
      7 C7          3.7178   -0.5654    0.0780 C.ar      1 <0>        -0.1130
      8 C8          2.5033    0.1321    0.0680 C.ar      1 <0>        -0.0082
      9 C9          1.2431   -0.6097    0.0084 C.ar      1 <0>        -0.1788
     10 C10         0.0537    0.0866    0.0235 C.ar      1 <0>        -0.0195
     11 C11         1.3371   -2.0806   -0.0757 C.2       1 <0>         0.5390
     12 O1          0.4144   -2.8054    0.2405 O.2       1 <0>        -0.4281
     13 O2          2.5217   -2.5746   -0.5300 O.3       1 <0>        -0.3481
     14 C12         3.7104   -2.0709    0.0854 C.3       1 <0>         0.2809
     15 C13         4.9129   -2.5769   -0.6688 C.ar      1 <0>        -0.0921
     16 C14         4.7878   -2.9570   -1.9923 C.ar      1 <0>        -0.0681
     17 C15         5.8886   -3.4215   -2.6858 C.ar      1 <0>        -0.1430
     18 C16         7.1204   -3.5060   -2.0533 C.ar      1 <0>         0.1186
     19 C17         7.2435   -3.1236   -0.7254 C.ar      1 <0>        -0.1423
     20 C18         6.1408   -2.6548   -0.0378 C.ar      1 <0>        -0.0877
     21 O3          8.2047   -3.9631   -2.7332 O.3       1 <0>        -0.4977
     22 C19         3.7767   -2.5605    1.5092 C.ar      1 <0>        -0.1294
     23 C20         4.4219   -1.8036    2.4699 C.ar      1 <0>        -0.0732
     24 C21         4.4848   -2.2499    3.7757 C.ar      1 <0>        -0.1373
     25 C22         3.8995   -3.4586    4.1235 C.ar      1 <0>         0.1481
     26 C23         3.2519   -4.2165    3.1578 C.ar      1 <0>        -0.1176
     27 C24         3.1875   -3.7627    1.8536 C.ar      1 <0>        -0.0470
     28 Br1         2.4531   -5.8650    3.6269 Br        1 <0>        -0.0259
     29 O4          3.9604   -3.9000    5.4075 O.3       1 <0>        -0.4839
     30 H1         -0.8728    2.0093    0.1051 H         1 <0>         0.1371
     31 H2          1.1896    3.2707    0.1682 H         1 <0>         0.1379
     32 H3          3.7060    3.3187    0.1336 H         1 <0>         0.1380
     33 H4          5.7992    2.0755    0.1068 H         1 <0>         0.1337
     34 H5          5.8254   -0.3798    0.0836 H         1 <0>         0.1365
     35 H6         -0.8858   -0.4449   -0.0113 H         1 <0>         0.1431
     36 H7          3.8286   -2.8910   -2.4842 H         1 <0>         0.1360
     37 H8          5.7902   -3.7190   -3.7193 H         1 <0>         0.1346
     38 H9          8.2014   -3.1885   -0.2308 H         1 <0>         0.1353
     39 H10         6.2370   -2.3528    0.9946 H         1 <0>         0.1311
     40 H11         8.7061   -3.2707   -3.1852 H         1 <0>         0.3939
     41 H12         4.8776   -0.8626    2.1990 H         1 <0>         0.1391
     42 H13         4.9895   -1.6585    4.5253 H         1 <0>         0.1447
     43 H14         2.6803   -4.3499    1.1023 H         1 <0>         0.1455
     44 H15         3.2210   -3.6094    5.9588 H         1 <0>         0.3979
@<TRIPOS>BOND
     1    1   10 ar
     2    1    2 ar
     3    1   30 1
     4    2    3 ar
     5    2   31 1
     6    3    8 ar
     7    3    4 ar
     8    4    5 ar
     9    4   32 1
    10    5    6 ar
    11    5   33 1
    12    6    7 ar
    13    6   34 1
    14    7   14 1
    15    7    8 ar
    16    8    9 ar
    17    9   10 ar
    18    9   11 1
    19   10   35 1
    20   11   12 2
    21   11   13 1
    22   13   14 1
    23   14   15 1
    24   14   22 1
    25   15   20 ar
    26   15   16 ar
    27   16   17 ar
    28   16   36 1
    29   17   18 ar
    30   17   37 1
    31   18   19 ar
    32   18   21 1
    33   19   20 ar
    34   19   38 1
    35   20   39 1
    36   21   40 1
    37   22   27 ar
    38   22   23 ar
    39   23   24 ar
    40   23   41 1
    41   24   25 ar
    42   24   42 1
    43   25   26 ar
    44   25   29 1
    45   26   27 ar
    46   26   28 1
    47   27   43 1
    48   29   44 1
@<TRIPOS>MOLECULE
CHEMBL291075
   56    58     0     0     0
SMALL
USER_CHARGES

@<TRIPOS>ATOM
      1 C1         -0.0127    1.0858    0.0080 C.3       1 <0>        -0.1122
      2 C2         -0.7416    1.5850   -1.2129 C.2       1 <0>         0.3870
      3 N1         -1.2185    0.7107   -2.0459 N.2       1 <0>        -0.5118
      4 C3         -1.8861    1.0857   -3.1657 C.ar      1 <0>         0.1544
      5 C4         -2.3988    0.1458   -4.0622 C.ar      1 <0>        -0.1012
      6 C5         -3.0695    0.5713   -5.1866 C.ar      1 <0>        -0.0531
      7 C6         -3.2433    1.9255   -5.4417 C.ar      1 <0>        -0.1230
      8 C7         -2.7463    2.8716   -4.5724 C.ar      1 <0>        -0.0290
      9 C8         -2.0647    2.4620   -3.4282 C.ar      1 <0>        -0.2022
     10 C9         -1.5124    3.4258   -2.4648 C.2       1 <0>         0.5534
     11 N2         -0.8708    2.9268   -1.3826 N.am      1 <0>        -0.6548
     12 O1         -1.6315    4.6256   -2.6317 O.2       1 <0>        -0.5171
     13 C10        -3.9816    2.3636   -6.6802 C.3       1 <0>         0.1624
     14 N3         -5.4103    2.4850   -6.3798 N.pl3     1 <0>        -0.6102
     15 C11        -5.9528    3.7596   -5.9028 C.3       1 <0>         0.2302
     16 C12        -6.3771    4.5737   -7.0534 C.1       1 <0>        -0.2094
     17 C13        -6.7155    5.2230   -7.9711 C.1       1 <0>        -0.1852
     18 C14        -6.2517    1.3905   -6.5475 C.ar      1 <0>         0.1688
     19 C15        -7.6139    1.4983   -6.2695 C.ar      1 <0>        -0.1604
     20 C16        -8.4126    0.3848   -6.4504 C.ar      1 <0>        -0.0660
     21 C17        -7.8331   -0.8014   -6.9019 C.ar      1 <0>         0.0533
     22 N4         -6.5309   -0.8668   -7.1561 N.ar      1 <0>        -0.4116
     23 C18        -5.7442    0.1732   -7.0012 C.ar      1 <0>         0.0302
     24 C19        -8.6775   -1.9989   -7.0990 C.2       1 <0>         0.5666
     25 O2         -9.8698   -1.9465   -6.8680 O.2       1 <0>        -0.5586
     26 N5         -8.1253   -3.1485   -7.5349 N.am      1 <0>        -0.6598
     27 C20        -8.9621   -4.3350   -7.7302 C.3       1 <0>         0.0709
     28 H1         -9.9463   -4.0309   -8.0866 H         1 <0>         0.0771
     29 C21        -8.3081   -5.2560   -8.7622 C.3       1 <0>        -0.0795
     30 C22        -8.2750   -4.5557  -10.1222 C.3       1 <0>        -0.1779
     31 C23        -7.6308   -5.4628  -11.1387 C.2       1 <0>         0.4917
     32 O3         -7.2350   -6.5670  -10.8063 O.co2     1 <0>        -0.6975
     33 O4         -7.5056   -5.0925  -12.2936 O.co2     1 <0>        -0.7215
     34 C24        -9.1062   -5.0690   -6.4219 C.2       1 <0>         0.4965
     35 O5         -8.5606   -4.6406   -5.4193 O.co2     1 <0>        -0.6961
     36 O6         -9.7685   -6.0911   -6.3661 O.co2     1 <0>        -0.7010
     37 H2          0.0021   -0.0041    0.0020 H         1 <0>         0.1057
     38 H3          1.0099    1.4631    0.0003 H         1 <0>         0.0908
     39 H4         -0.5229    1.4373    0.9048 H         1 <0>         0.0914
     40 H5         -2.2695   -0.9098   -3.8746 H         1 <0>         0.1455
     41 H6         -3.4651   -0.1569   -5.8791 H         1 <0>         0.1424
     42 H7         -2.8845    3.9233   -4.7760 H         1 <0>         0.1351
     43 H8         -0.4967    3.5327   -0.7240 H         1 <0>         0.4163
     44 H9         -3.5965    3.3283   -7.0106 H         1 <0>         0.0892
     45 H10        -3.8377    1.6254   -7.4692 H         1 <0>         0.0952
     46 H11        -6.8094    3.5705   -5.2559 H         1 <0>         0.1009
     47 H12        -5.1855    4.2941   -5.3427 H         1 <0>         0.0976
     48 H13        -7.0181    5.8037   -8.7919 H         1 <0>         0.2157
     49 H14        -8.0348    2.4298   -5.9208 H         1 <0>         0.1335
     50 H15        -9.4718    0.4323   -6.2446 H         1 <0>         0.1466
     51 H16        -4.6911    0.0835   -7.2231 H         1 <0>         0.1540
     52 H17        -7.1739   -3.1902   -7.7192 H         1 <0>         0.4000
     53 H18        -7.2905   -5.4886   -8.4485 H         1 <0>         0.0557
     54 H19        -8.8834   -6.1783   -8.8424 H         1 <0>         0.0782
     55 H20        -9.2926   -4.3231  -10.4360 H         1 <0>         0.0511
     56 H21        -7.6996   -3.6334  -10.0420 H         1 <0>         0.0518
@<TRIPOS>BOND
     1    1   37 1
     2    1   38 1
     3    1   39 1
     4    1    2 1
     5    2    3 2
     6    2   11 1
     7    3    4 1
     8    4    9 ar
     9    4    5 ar
    10    5    6 ar
    11    5   40 1
    12    6    7 ar
    13    6   41 1
    14    7    8 ar
    15    7   13 1
    16    8    9 ar
    17    8   42 1
    18    9   10 1
    19   10   12 2
    20   10   11 am
    21   11   43 1
    22   13   14 1
    23   13   44 1
    24   13   45 1
    25   14   15 1
    26   14   18 1
    27   15   16 1
    28   15   46 1
    29   15   47 1
    30   16   17 3
    31   17   48 1
    32   18   23 ar
    33   18   19 ar
    34   19   20 ar
    35   19   49 1
    36   20   21 ar
    37   20   50 1
    38   21   22 ar
    39   21   24 1
    40   22   23 ar
    41   23   51 1
    42   24   25 2
    43   24   26 am
    44   26   27 1
    45   26   52 1
    46   27   28 1
    47   27   29 1
    48   27   34 1
    49   29   30 1
    50   29   53 1
    51   29   54 1
    52   30   31 1
    53   30   55 1
    54   30   56 1
    55   31   32 2
    56   31   33 1
    57   34   35 2
    58   34   36 1
@<TRIPOS>MOLECULE
CHEMBL348765
   64    67     0     0     0
SMALL
USER_CHARGES

@<TRIPOS>ATOM
      1 C1         -0.0127    1.0858    0.0080 C.3       1 <0>        -0.1139
      2 C2         -0.7416    1.5850   -1.2129 C.2       1 <0>         0.3928
      3 N1         -1.2185    0.7107   -2.0459 N.2       1 <0>        -0.5166
      4 C3         -1.8861    1.0857   -3.1657 C.ar      1 <0>         0.1578
      5 C4         -2.3988    0.1458   -4.0622 C.ar      1 <0>        -0.1053
      6 C5         -3.0695    0.5713   -5.1866 C.ar      1 <0>        -0.0540
      7 C6         -3.2433    1.9255   -5.4417 C.ar      1 <0>        -0.1257
      8 C7         -2.7463    2.8716   -4.5724 C.ar      1 <0>        -0.0274
      9 C8         -2.0647    2.4620   -3.4282 C.ar      1 <0>        -0.2017
     10 C9         -1.5124    3.4258   -2.4648 C.2       1 <0>         0.5523
     11 N2         -0.8708    2.9268   -1.3826 N.am      1 <0>        -0.6543
     12 O1         -1.6315    4.6256   -2.6317 O.2       1 <0>        -0.5135
     13 C10        -3.9816    2.3636   -6.6802 C.3       1 <0>         0.1633
     14 N3         -5.4103    2.4850   -6.3798 N.pl3     1 <0>        -0.6137
     15 C11        -5.9528    3.7596   -5.9028 C.3       1 <0>         0.2287
     16 C12        -6.3771    4.5737   -7.0534 C.1       1 <0>        -0.2096
     17 C13        -6.7155    5.2230   -7.9711 C.1       1 <0>        -0.1842
     18 C14        -6.2515    1.3907   -6.5475 C.ar      1 <0>         0.2328
     19 C15        -5.7335    0.1786   -6.9955 C.ar      1 <0>        -0.2058
     20 C16        -6.5634   -0.9063   -7.1624 C.ar      1 <0>        -0.0136
     21 C17        -7.9280   -0.7904   -6.8816 C.ar      1 <0>        -0.1714
     22 C18        -8.4450    0.4280   -6.4319 C.ar      1 <0>        -0.0368
     23 C19        -7.6090    1.5077   -6.2616 C.ar      1 <0>        -0.1998
     24 C20        -8.8205   -1.9514   -7.0600 C.2       1 <0>         0.5616
     25 O2         -8.3695   -3.0105   -7.4516 O.2       1 <0>        -0.5476
     26 N4        -10.1358   -1.8381   -6.7888 N.am      1 <0>        -0.6935
     27 C21       -11.0222   -2.9910   -6.9660 C.3       1 <0>         0.0821
     28 C22       -12.4516   -2.5028   -7.2091 C.3       1 <0>        -0.0779
     29 C23       -12.5104   -1.7506   -8.5137 C.ar      1 <0>        -0.0609
     30 C24       -12.2818   -0.3872   -8.5364 C.ar      1 <0>        -0.0663
     31 C25       -12.3357    0.3026   -9.7329 C.ar      1 <0>        -0.1143
     32 C26       -12.6179   -0.3707  -10.9070 C.ar      1 <0>        -0.0692
     33 C27       -12.8456   -1.7337  -10.8843 C.ar      1 <0>        -0.0460
     34 C28       -12.7874   -2.4246   -9.6881 C.ar      1 <0>        -0.0517
     35 N5        -13.1482   -2.4545  -12.1413 N.pl3     1 <0>         0.0363
     36 O3        -13.1962   -1.8509  -13.1877 O.2       1 <0>        -0.1688
     37 O4        -13.3474   -3.6468  -12.1215 O.3       1 <0>        -0.1574
     38 C29       -10.9877   -3.8464   -5.7257 C.2       1 <0>         0.4925
     39 O5        -10.4373   -3.4368   -4.7178 O.co2     1 <0>        -0.6805
     40 O6        -11.5101   -4.9480   -5.7302 O.co2     1 <0>        -0.6924
     41 H1          0.0021   -0.0041    0.0020 H         1 <0>         0.1059
     42 H2          1.0099    1.4631    0.0003 H         1 <0>         0.0926
     43 H3         -0.5229    1.4373    0.9048 H         1 <0>         0.0933
     44 H4         -2.2695   -0.9098   -3.8746 H         1 <0>         0.1433
     45 H5         -3.4651   -0.1569   -5.8791 H         1 <0>         0.1391
     46 H6         -2.8845    3.9233   -4.7760 H         1 <0>         0.1354
     47 H7         -0.4967    3.5327   -0.7240 H         1 <0>         0.4181
     48 H8         -3.5965    3.3283   -7.0106 H         1 <0>         0.0874
     49 H9         -3.8377    1.6254   -7.4692 H         1 <0>         0.0929
     50 H10        -6.8094    3.5705   -5.2559 H         1 <0>         0.1024
     51 H11        -5.1855    4.2941   -5.3427 H         1 <0>         0.0974
     52 H12        -7.0181    5.8037   -8.7919 H         1 <0>         0.2159
     53 H13        -4.6793    0.0898   -7.2126 H         1 <0>         0.1264
     54 H14        -6.1610   -1.8463   -7.5103 H         1 <0>         0.1349
     55 H15        -9.4989    0.5208   -6.2145 H         1 <0>         0.1224
     56 H16        -8.0070    2.4480   -5.9096 H         1 <0>         0.1243
     57 H17       -10.4956   -0.9932   -6.4765 H         1 <0>         0.3861
     58 H18       -10.6882   -3.5780   -7.8215 H         1 <0>         0.0861
     59 H19       -13.1254   -3.3585   -7.2524 H         1 <0>         0.1009
     60 H20       -12.7537   -1.8433   -6.3955 H         1 <0>         0.0828
     61 H21       -12.0613    0.1387   -7.6193 H         1 <0>         0.1381
     62 H22       -12.1578    1.3677   -9.7506 H         1 <0>         0.1443
     63 H23       -12.6607    0.1685  -11.8418 H         1 <0>         0.1484
     64 H24       -12.9617   -3.4903   -9.6709 H         1 <0>         0.1550
@<TRIPOS>BOND
     1    1   41 1
     2    1   42 1
     3    1   43 1
     4    1    2 1
     5    2    3 2
     6    2   11 1
     7    3    4 1
     8    4    9 ar
     9    4    5 ar
    10    5    6 ar
    11    5   44 1
    12    6    7 ar
    13    6   45 1
    14    7    8 ar
    15    7   13 1
    16    8    9 ar
    17    8   46 1
    18    9   10 1
    19   10   12 2
    20   10   11 am
    21   11   47 1
    22   13   14 1
    23   13   48 1
    24   13   49 1
    25   14   15 1
    26   14   18 1
    27   15   16 1
    28   15   50 1
    29   15   51 1
    30   16   17 3
    31   17   52 1
    32   18   23 ar
    33   18   19 ar
    34   19   20 ar
    35   19   53 1
    36   20   21 ar
    37   20   54 1
    38   21   22 ar
    39   21   24 1
    40   22   23 ar
    41   22   55 1
    42   23   56 1
    43   24   25 2
    44   24   26 am
    45   26   27 1
    46   26   57 1
    47   27   28 1
    48   27   38 1
    49   27   58 1
    50   28   29 1
    51   28   59 1
    52   28   60 1
    53   29   34 ar
    54   29   30 ar
    55   30   31 ar
    56   30   61 1
    57   31   32 ar
    58   31   62 1
    59   32   33 ar
    60   32   63 1
    61   33   34 ar
    62   33   35 1
    63   34   64 1
    64   35   36 2
    65   35   37 1
    66   38   39 2
    67   38   40 1
@<TRIPOS>MOLECULE
CHEMBL348765__1
   64    67     0     0     0
SMALL
USER_CHARGES

@<TRIPOS>ATOM
      1 C1         -0.0127    1.0858    0.0080 C.3       1 <0>        -0.1137
      2 C2         -0.7416    1.5850   -1.2129 C.2       1 <0>         0.3927
      3 N1         -1.2185    0.7107   -2.0459 N.2       1 <0>        -0.5176
      4 C3         -1.8861    1.0857   -3.1657 C.ar      1 <0>         0.1569
      5 C4         -2.3988    0.1458   -4.0622 C.ar      1 <0>        -0.1069
      6 C5         -3.0695    0.5713   -5.1866 C.ar      1 <0>        -0.0545
      7 C6         -3.2433    1.9255   -5.4417 C.ar      1 <0>        -0.1240
      8 C7         -2.7463    2.8716   -4.5724 C.ar      1 <0>        -0.0267
      9 C8         -2.0647    2.4620   -3.4282 C.ar      1 <0>        -0.2010
     10 C9         -1.5124    3.4258   -2.4648 C.2       1 <0>         0.5521
     11 N2         -0.8708    2.9268   -1.3826 N.am      1 <0>        -0.6543
     12 O1         -1.6315    4.6256   -2.6317 O.2       1 <0>        -0.5121
     13 C10        -3.9816    2.3636   -6.6802 C.3       1 <0>         0.1626
     14 N3         -5.4103    2.4850   -6.3798 N.pl3     1 <0>        -0.6133
     15 C11        -5.9528    3.7596   -5.9028 C.3       1 <0>         0.2291
     16 C12        -6.3771    4.5737   -7.0534 C.1       1 <0>        -0.2124
     17 C13        -6.7155    5.2230   -7.9711 C.1       1 <0>        -0.1808
     18 C14        -6.2515    1.3907   -6.5475 C.ar      1 <0>         0.2341
     19 C15        -5.7335    0.1786   -6.9955 C.ar      1 <0>        -0.2075
     20 C16        -6.5634   -0.9063   -7.1624 C.ar      1 <0>        -0.0140
     21 C17        -7.9280   -0.7904   -6.8816 C.ar      1 <0>        -0.1769
     22 C18        -8.4450    0.4280   -6.4319 C.ar      1 <0>        -0.0342
     23 C19        -7.6090    1.5077   -6.2616 C.ar      1 <0>        -0.1967
     24 C20        -8.8205   -1.9514   -7.0600 C.2       1 <0>         0.5588
     25 O2         -8.3695   -3.0105   -7.4516 O.2       1 <0>        -0.5477
     26 N4        -10.1358   -1.8381   -6.7888 N.am      1 <0>        -0.6957
     27 C21       -11.0222   -2.9910   -6.9660 C.3       1 <0>         0.0836
     28 C22       -12.2431   -2.8402   -6.0562 C.3       1 <0>        -0.0795
     29 C23       -11.8052   -2.8917   -4.6152 C.ar      1 <0>        -0.0612
     30 C24       -11.7443   -4.1044   -3.9540 C.ar      1 <0>        -0.0634
     31 C25       -11.3427   -4.1516   -2.6324 C.ar      1 <0>        -0.1141
     32 C26       -11.0014   -2.9861   -1.9716 C.ar      1 <0>        -0.0690
     33 C27       -11.0613   -1.7739   -2.6328 C.ar      1 <0>        -0.0467
     34 C28       -11.4589   -1.7272   -3.9561 C.ar      1 <0>        -0.0536
     35 N5        -10.6963   -0.5260   -1.9252 N.pl3     1 <0>         0.0382
     36 O3        -10.3458   -0.5672   -0.7689 O.2       1 <0>        -0.1699
     37 O4        -10.7488    0.5343   -2.5036 O.3       1 <0>        -0.1590
     38 C29       -11.4719   -3.0629   -8.4025 C.2       1 <0>         0.4933
     39 O5        -11.7273   -4.1426   -8.9080 O.co2     1 <0>        -0.6906
     40 O6        -11.5804   -2.0414   -9.0591 O.co2     1 <0>        -0.6837
     41 H1          0.0021   -0.0041    0.0020 H         1 <0>         0.1053
     42 H2          1.0099    1.4631    0.0003 H         1 <0>         0.0925
     43 H3         -0.5229    1.4373    0.9048 H         1 <0>         0.0932
     44 H4         -2.2695   -0.9098   -3.8746 H         1 <0>         0.1419
     45 H5         -3.4651   -0.1569   -5.8791 H         1 <0>         0.1389
     46 H6         -2.8845    3.9233   -4.7760 H         1 <0>         0.1360
     47 H7         -0.4967    3.5327   -0.7240 H         1 <0>         0.4181
     48 H8         -3.5965    3.3283   -7.0106 H         1 <0>         0.0879
     49 H9         -3.8377    1.6254   -7.4692 H         1 <0>         0.0931
     50 H10        -6.8094    3.5705   -5.2559 H         1 <0>         0.1034
     51 H11        -5.1855    4.2941   -5.3427 H         1 <0>         0.0969
     52 H12        -7.0181    5.8037   -8.7919 H         1 <0>         0.2162
     53 H13        -4.6793    0.0898   -7.2126 H         1 <0>         0.1263
     54 H14        -6.1610   -1.8463   -7.5103 H         1 <0>         0.1344
     55 H15        -9.4989    0.5208   -6.2145 H         1 <0>         0.1237
     56 H16        -8.0070    2.4480   -5.9096 H         1 <0>         0.1265
     57 H17       -10.4956   -0.9932   -6.4765 H         1 <0>         0.3886
     58 H18       -10.4866   -3.9043   -6.7068 H         1 <0>         0.0860
     59 H19       -12.7282   -1.8845   -6.2547 H         1 <0>         0.0844
     60 H20       -12.9444   -3.6513   -6.2520 H         1 <0>         0.0985
     61 H21       -12.0110   -5.0148   -4.4702 H         1 <0>         0.1455
     62 H22       -11.2959   -5.0988   -2.1157 H         1 <0>         0.1455
     63 H23       -10.6882   -3.0229   -0.9386 H         1 <0>         0.1485
     64 H24       -11.5022   -0.7804   -4.4739 H         1 <0>         0.1479
@<TRIPOS>BOND
     1    1   41 1
     2    1   42 1
     3    1   43 1
     4    1    2 1
     5    2    3 2
     6    2   11 1
     7    3    4 1
     8    4    9 ar
     9    4    5 ar
    10    5    6 ar
    11    5   44 1
    12    6    7 ar
    13    6   45 1
    14    7    8 ar
    15    7   13 1
    16    8    9 ar
    17    8   46 1
    18    9   10 1
    19   10   12 2
    20   10   11 am
    21   11   47 1
    22   13   14 1
    23   13   48 1
    24   13   49 1
    25   14   15 1
    26   14   18 1
    27   15   16 1
    28   15   50 1
    29   15   51 1
    30   16   17 3
    31   17   52 1
    32   18   23 ar
    33   18   19 ar
    34   19   20 ar
    35   19   53 1
    36   20   21 ar
    37   20   54 1
    38   21   22 ar
    39   21   24 1
    40   22   23 ar
    41   22   55 1
    42   23   56 1
    43   24   25 2
    44   24   26 am
    45   26   27 1
    46   26   57 1
    47   27   28 1
    48   27   38 1
    49   27   58 1
    50   28   29 1
    51   28   59 1
    52   28   60 1
    53   29   34 ar
    54   29   30 ar
    55   30   31 ar
    56   30   61 1
    57   31   32 ar
    58   31   62 1
    59   32   33 ar
    60   32   63 1
    61   33   34 ar
    62   33   35 1
    63   34   64 1
    64   35   36 2
    65   35   37 1
    66   38   39 2
    67   38   40 1
@<TRIPOS>MOLECULE
CHEMBL161081
   77    81     0     0     0
SMALL
USER_CHARGES

@<TRIPOS>ATOM
      1 C1         -0.0178    1.4648    0.0101 C.3       1 <0>        -0.0458
      2 N1          0.0021   -0.0041    0.0020 N.4       1 <0>        -0.3896
      3 C2         -1.3761   -0.5122    0.0107 C.3       1 <0>        -0.0004
      4 C3         -1.3560   -2.0421   -0.0167 C.3       1 <0>         0.0245
      5 N2         -0.6244   -2.5407    1.1564 N.3       1 <0>        -0.5165
      6 C4          0.7499   -2.0201    1.1745 C.3       1 <0>         0.0199
      7 C5          0.7125   -0.4904    1.1921 C.3       1 <0>         0.0004
      8 C6         -0.6316   -4.0091    1.1963 C.3       1 <0>         0.1028
      9 C7         -0.0938   -4.4782    2.5236 C.2       1 <0>         0.3870
     10 N3          0.2762   -3.5838    3.3891 N.2       1 <0>        -0.4981
     11 C8          0.7694   -3.9312    4.6041 C.ar      1 <0>         0.1481
     12 C9          1.1679   -2.9697    5.5351 C.ar      1 <0>        -0.1046
     13 C10         1.6633   -3.3675    6.7564 C.ar      1 <0>        -0.0555
     14 C11         1.7723   -4.7148    7.0755 C.ar      1 <0>        -0.1173
     15 C12         1.3861   -5.6819    6.1736 C.ar      1 <0>        -0.0252
     16 C13         0.8816   -5.3004    4.9320 C.ar      1 <0>        -0.1918
     17 C14         0.4537   -6.2875    3.9295 C.2       1 <0>         0.5517
     18 N4         -0.0261   -5.8151    2.7554 N.am      1 <0>        -0.6524
     19 O1          0.5241   -7.4827    4.1488 O.2       1 <0>        -0.4951
     20 C15         2.3181   -5.1223    8.4197 C.3       1 <0>         0.1568
     21 N5          1.2175   -5.2333    9.3804 N.pl3     1 <0>        -0.6096
     22 C16         0.5196   -6.5101    9.5504 C.3       1 <0>         0.2305
     23 C17         1.1875   -7.2986   10.5987 C.1       1 <0>        -0.2278
     24 C18         1.7203   -7.9275   11.4347 C.1       1 <0>        -0.1630
     25 C19         0.8355   -4.1268   10.1308 C.ar      1 <0>         0.2474
     26 C20         1.4960   -2.9127    9.9639 C.ar      1 <0>        -0.2093
     27 C21         1.1202   -1.8158   10.7050 C.ar      1 <0>        -0.0057
     28 C22         0.0741   -1.9215   11.6262 C.ar      1 <0>        -0.1969
     29 C23        -0.5872   -3.1421   11.7914 C.ar      1 <0>        -0.0324
     30 C24        -0.2105   -4.2338   11.0432 C.ar      1 <0>        -0.2003
     31 C25        -0.3310   -0.7477   12.4227 C.2       1 <0>         0.5673
     32 O2          0.2453    0.3132   12.2783 O.2       1 <0>        -0.5393
     33 N6         -1.3398   -0.8512   13.3104 N.am      1 <0>        -0.7299
     34 C26        -1.7420    0.3145   14.1013 C.3       1 <0>         0.1632
     35 C27        -2.8827   -0.0646   15.0103 C.ar      1 <0>        -0.1095
     36 C28        -4.1878    0.0649   14.5726 C.ar      1 <0>        -0.0505
     37 C29        -5.2340   -0.2827   15.4062 C.ar      1 <0>        -0.1158
     38 C30        -4.9754   -0.7603   16.6776 C.ar      1 <0>        -0.0466
     39 C31        -3.6708   -0.8906   17.1148 C.ar      1 <0>        -0.0483
     40 C32        -2.6241   -0.5470   16.2794 C.ar      1 <0>        -0.0376
     41 N7         -3.3940   -1.4015   18.4762 N.pl3     1 <0>         0.0301
     42 O3         -4.3092   -1.7048   19.2057 O.2       1 <0>        -0.1517
     43 O4         -2.2528   -1.5155   18.8587 O.3       1 <0>        -0.1530
     44 H1          1.0047    1.8421    0.0024 H         1 <0>         0.1241
     45 H2         -0.5450    1.8259   -0.8730 H         1 <0>         0.1237
     46 H3         -0.5280    1.8163    0.9069 H         1 <0>         0.1235
     47 H4         -1.8832   -0.1716    0.9134 H         1 <0>         0.1393
     48 H5         -1.9060   -0.1400   -0.8661 H         1 <0>         0.1367
     49 H6         -2.3783   -2.4196    0.0047 H         1 <0>         0.1257
     50 H7         -0.8610   -2.3831   -0.9260 H         1 <0>         0.0631
     51 H8          1.2641   -2.3816    2.0650 H         1 <0>         0.1440
     52 H9          1.2796   -2.3607    0.2848 H         1 <0>         0.0553
     53 H10         1.7310   -0.1020    1.1912 H         1 <0>         0.1347
     54 H11         0.1947   -0.1499    2.0888 H         1 <0>         0.1405
     55 H12        -1.6519   -4.3710    1.0694 H         1 <0>         0.1227
     56 H13        -0.0057   -4.3975    0.3929 H         1 <0>         0.0825
     57 H14         1.0882   -1.9191    5.2980 H         1 <0>         0.1397
     58 H15         1.9715   -2.6226    7.4751 H         1 <0>         0.1392
     59 H16         1.4731   -6.7280    6.4272 H         1 <0>         0.1394
     60 H17        -0.3212   -6.4369    2.0719 H         1 <0>         0.4205
     61 H18         2.8212   -6.0851    8.3309 H         1 <0>         0.0934
     62 H19         3.0284   -4.3717    8.7662 H         1 <0>         0.0959
     63 H20        -0.5145   -6.3231    9.8398 H         1 <0>         0.1024
     64 H21         0.5398   -7.0631    8.6113 H         1 <0>         0.0994
     65 H22         2.1967   -8.4900   12.1824 H         1 <0>         0.2190
     66 H23         2.3044   -2.8317    9.2523 H         1 <0>         0.1297
     67 H24         1.6333   -0.8743   10.5754 H         1 <0>         0.1366
     68 H25        -1.3956   -3.2270   12.5026 H         1 <0>         0.1231
     69 H26        -0.7241   -5.1758   11.1670 H         1 <0>         0.1289
     70 H27        -1.7995   -1.6976   13.4256 H         1 <0>         0.4006
     71 H28        -0.8979    0.6557   14.7006 H         1 <0>         0.0864
     72 H29        -2.0603    1.1146   13.4331 H         1 <0>         0.0877
     73 H30        -4.3897    0.4381   13.5794 H         1 <0>         0.1457
     74 H31        -6.2534   -0.1808   15.0645 H         1 <0>         0.1520
     75 H32        -5.7930   -1.0313   17.3293 H         1 <0>         0.1570
     76 H33        -1.6046   -0.6523   16.6197 H         1 <0>         0.1561
     77 H34         0.4748   -0.3293   -0.8280 H         1 <0>         0.4216
@<TRIPOS>BOND
     1    1    2 1
     2    1   44 1
     3    1   45 1
     4    1   46 1
     5    2    7 1
     6    2    3 1
     7    2   77 1
     8    3    4 1
     9    3   47 1
    10    3   48 1
    11    4    5 1
    12    4   49 1
    13    4   50 1
    14    5    6 1
    15    5    8 1
    16    6    7 1
    17    6   51 1
    18    6   52 1
    19    7   53 1
    20    7   54 1
    21    8   55 1
    22    8   56 1
    23    8    9 1
    24    9   10 2
    25    9   18 1
    26   10   11 1
    27   11   16 ar
    28   11   12 ar
    29   12   13 ar
    30   12   57 1
    31   13   14 ar
    32   13   58 1
    33   14   15 ar
    34   14   20 1
    35   15   16 ar
    36   15   59 1
    37   16   17 1
    38   17   19 2
    39   17   18 am
    40   18   60 1
    41   20   21 1
    42   20   61 1
    43   20   62 1
    44   21   22 1
    45   21   25 1
    46   22   23 1
    47   22   63 1
    48   22   64 1
    49   23   24 3
    50   24   65 1
    51   25   30 ar
    52   25   26 ar
    53   26   27 ar
    54   26   66 1
    55   27   28 ar
    56   27   67 1
    57   28   29 ar
    58   28   31 1
    59   29   30 ar
    60   29   68 1
    61   30   69 1
    62   31   32 2
    63   31   33 am
    64   33   34 1
    65   33   70 1
    66   34   35 1
    67   34   71 1
    68   34   72 1
    69   35   40 ar
    70   35   36 ar
    71   36   37 ar
    72   36   73 1
    73   37   38 ar
    74   37   74 1
    75   38   39 ar
    76   38   75 1
    77   39   40 ar
    78   39   41 1
    79   40   76 1
    80   41   42 2
    81   41   43 1
@<TRIPOS>MOLECULE
CHEMBL161081__1
   77    81     0     0     0
SMALL
USER_CHARGES

@<TRIPOS>ATOM
      1 C1         -0.0178    1.4648    0.0101 C.3       1 <0>         0.0194
      2 N1          0.0021   -0.0041    0.0020 N.3       1 <0>        -0.5444
      3 C2         -1.3607   -0.5489   -0.0764 C.3       1 <0>         0.0257
      4 C3         -1.2932   -2.0762   -0.1426 C.3       1 <0>        -0.0043
      5 N2         -0.6107   -2.5886    1.0529 N.4       1 <0>        -0.3724
      6 C4          0.7570   -2.0553    1.1043 C.3       1 <0>        -0.0118
      7 C5          0.7065   -0.5278    1.1808 C.3       1 <0>         0.0297
      8 C6         -0.5621   -4.0557    0.9977 C.3       1 <0>         0.0497
      9 C7          0.0271   -4.5874    2.2788 C.2       1 <0>         0.3594
     10 N3          0.3857   -3.7364    3.1915 N.2       1 <0>        -0.5247
     11 C8          0.9228   -4.1413    4.3696 C.ar      1 <0>         0.1381
     12 C9          1.3092   -3.2265    5.3514 C.ar      1 <0>        -0.0945
     13 C10         1.8505   -3.6820    6.5323 C.ar      1 <0>        -0.0543
     14 C11         2.0178   -5.0417    6.7607 C.ar      1 <0>        -0.1006
     15 C12         1.6448   -5.9634    5.8073 C.ar      1 <0>        -0.0273
     16 C13         1.0944   -5.5233    4.6053 C.ar      1 <0>        -0.1772
     17 C14         0.6779   -6.4602    3.5512 C.2       1 <0>         0.5539
     18 N4          0.1505   -5.9328    2.4218 N.am      1 <0>        -0.6426
     19 O1          0.7985   -7.6634    3.6908 O.2       1 <0>        -0.4773
     20 C15         2.6131   -5.5128    8.0626 C.3       1 <0>         0.1536
     21 N5          1.5427   -5.7276    9.0395 N.pl3     1 <0>        -0.6108
     22 C16         0.8975   -7.0388    9.1427 C.3       1 <0>         0.2318
     23 C17         1.6213   -7.8662   10.1217 C.1       1 <0>        -0.2316
     24 C18         2.1986   -8.5260   10.9025 C.1       1 <0>        -0.1587
     25 C19         1.1392   -4.6870    9.8688 C.ar      1 <0>         0.2444
     26 C20         1.7494   -3.4400    9.7657 C.ar      1 <0>        -0.2096
     27 C21         1.3523   -2.4082   10.5850 C.ar      1 <0>        -0.0058
     28 C22         0.3350   -2.6132   11.5216 C.ar      1 <0>        -0.1938
     29 C23        -0.2758   -3.8666   11.6228 C.ar      1 <0>        -0.0325
     30 C24         0.1219   -4.8928   10.7967 C.ar      1 <0>        -0.1989
     31 C25        -0.0928   -1.5093   12.4018 C.2       1 <0>         0.5662
     32 O2          0.4396   -0.4197   12.3130 O.2       1 <0>        -0.5376
     33 N6         -1.0737   -1.7085   13.3043 N.am      1 <0>        -0.7294
     34 C26        -1.4985   -0.6123   14.1784 C.3       1 <0>         0.1629
     35 C27        -2.6004   -1.0927   15.0873 C.ar      1 <0>        -0.1099
     36 C28        -3.9203   -0.9863   14.6896 C.ar      1 <0>        -0.0506
     37 C29        -4.9308   -1.4270   15.5232 C.ar      1 <0>        -0.1158
     38 C30        -4.6218   -1.9745   16.7546 C.ar      1 <0>        -0.0463
     39 C31        -3.3023   -2.0816   17.1518 C.ar      1 <0>        -0.0482
     40 C32        -2.2912   -1.6448   16.3161 C.ar      1 <0>        -0.0376
     41 N7         -2.9716   -2.6673   18.4703 N.pl3     1 <0>         0.0299
     42 O3         -3.8556   -3.0520   19.1998 O.2       1 <0>        -0.1512
     43 O4         -1.8174   -2.7611   18.8177 O.3       1 <0>        -0.1529
     44 H1          1.0047    1.8421    0.0024 H         1 <0>         0.0842
     45 H2         -0.5450    1.8259   -0.8730 H         1 <0>         0.0834
     46 H3         -0.5280    1.8163    0.9069 H         1 <0>         0.0398
     47 H4         -1.9242   -0.2477    0.8067 H         1 <0>         0.0617
     48 H5         -1.8539   -0.1676   -0.9705 H         1 <0>         0.1256
     49 H6         -2.3035   -2.4830   -0.1865 H         1 <0>         0.1384
     50 H7         -0.7413   -2.3773   -1.0330 H         1 <0>         0.1414
     51 H8          1.2666   -2.4465    1.9848 H         1 <0>         0.1550
     52 H9          1.2983   -2.3564    0.2075 H         1 <0>         0.1324
     53 H10         1.7215   -0.1310    1.2040 H         1 <0>         0.1226
     54 H11         0.1771   -0.2262    2.0846 H         1 <0>         0.0626
     55 H12        -1.5711   -4.4482    0.8715 H         1 <0>         0.1637
     56 H13         0.0569   -4.3674    0.1563 H         1 <0>         0.1637
     57 H14         1.1842   -2.1668    5.1849 H         1 <0>         0.1449
     58 H15         2.1492   -2.9731    7.2905 H         1 <0>         0.1450
     59 H16         1.7773   -7.0195    5.9905 H         1 <0>         0.1447
     60 H17        -0.1387   -6.5206    1.7064 H         1 <0>         0.4260
     61 H18         3.1494   -6.4476    7.8997 H         1 <0>         0.0962
     62 H19         3.3037   -4.7588    8.4403 H         1 <0>         0.0990
     63 H20        -0.1350   -6.9111    9.4677 H         1 <0>         0.1027
     64 H21         0.9140   -7.5295    8.1695 H         1 <0>         0.0984
     65 H22         2.7149   -9.1162   11.6008 H         1 <0>         0.2195
     66 H23         2.5356   -3.2823    9.0421 H         1 <0>         0.1293
     67 H24         1.8263   -1.4411   10.5047 H         1 <0>         0.1377
     68 H25        -1.0617   -4.0282   12.3456 H         1 <0>         0.1239
     69 H26        -0.3528   -5.8600   10.8711 H         1 <0>         0.1293
     70 H27        -1.4984   -2.5777   13.3751 H         1 <0>         0.4004
     71 H28        -0.6525   -0.2774   14.7786 H         1 <0>         0.0868
     72 H29        -1.8636    0.2160   13.5712 H         1 <0>         0.0881
     73 H30        -4.1616   -0.5586   13.7278 H         1 <0>         0.1456
     74 H31        -5.9619   -1.3432   15.2129 H         1 <0>         0.1520
     75 H32        -5.4115   -2.3181   17.4063 H         1 <0>         0.1572
     76 H33        -1.2600   -1.7320   16.6249 H         1 <0>         0.1562
     77 H34        -1.1152   -2.2999    1.8777 H         1 <0>         0.4304
@<TRIPOS>BOND
     1    1    2 1
     2    1   44 1
     3    1   45 1
     4    1   46 1
     5    2    7 1
     6    2    3 1
     7    3    4 1
     8    3   47 1
     9    3   48 1
    10    4    5 1
    11    4   49 1
    12    4   50 1
    13    5    6 1
    14    5    8 1
    15    5   77 1
    16    6    7 1
    17    6   51 1
    18    6   52 1
    19    7   53 1
    20    7   54 1
    21    8   55 1
    22    8   56 1
    23    8    9 1
    24    9   10 2
    25    9   18 1
    26   10   11 1
    27   11   16 ar
    28   11   12 ar
    29   12   13 ar
    30   12   57 1
    31   13   14 ar
    32   13   58 1
    33   14   15 ar
    34   14   20 1
    35   15   16 ar
    36   15   59 1
    37   16   17 1
    38   17   19 2
    39   17   18 am
    40   18   60 1
    41   20   21 1
    42   20   61 1
    43   20   62 1
    44   21   22 1
    45   21   25 1
    46   22   23 1
    47   22   63 1
    48   22   64 1
    49   23   24 3
    50   24   65 1
    51   25   30 ar
    52   25   26 ar
    53   26   27 ar
    54   26   66 1
    55   27   28 ar
    56   27   67 1
    57   28   29 ar
    58   28   31 1
    59   29   30 ar
    60   29   68 1
    61   30   69 1
    62   31   32 2
    63   31   33 am
    64   33   34 1
    65   33   70 1
    66   34   35 1
    67   34   71 1
    68   34   72 1
    69   35   40 ar
    70   35   36 ar
    71   36   37 ar
    72   36   73 1
    73   37   38 ar
    74   37   74 1
    75   38   39 ar
    76   38   75 1
    77   39   40 ar
    78   39   41 1
    79   40   76 1
    80   41   42 2
    81   41   43 1
@<TRIPOS>MOLECULE
CHEMBL59843
   50    52     0     0     0
SMALL
USER_CHARGES

@<TRIPOS>ATOM
      1 C1         -0.0167    1.3794    0.0096 C.ar      1 <0>        -0.1238
      2 C2          1.1667    2.0884    0.0021 C.ar      1 <0>        -0.0647
      3 C3          2.3848    1.4070   -0.0132 C.ar      1 <0>        -0.1133
      4 C4          2.3966    0.0113   -0.0208 C.ar      1 <0>        -0.0844
      5 C5          1.2061   -0.6856   -0.0132 C.ar      1 <0>        -0.1247
      6 C6          0.0021   -0.0041    0.0020 C.ar      1 <0>        -0.0744
      7 C7         -1.2946   -0.7719    0.0103 C.3       1 <0>        -0.0649
      8 C8         -1.7472   -1.0241   -1.4293 C.3       1 <0>        -0.0476
      9 C9         -3.0439   -1.7919   -1.4210 C.2       1 <0>        -0.0690
     10 C10        -3.1874   -3.1243   -1.5149 C.2       1 <0>        -0.0060
     11 N1         -4.5199   -3.4490   -1.4706 N.pl3     1 <0>        -0.5466
     12 H1         -4.8743   -4.3506   -1.5205 H         1 <0>         0.4185
     13 C11        -5.2735   -2.3188   -1.3457 C.2       1 <0>         0.3387
     14 C12        -4.3891   -1.2318   -1.3029 C.2       1 <0>        -0.3095
     15 C13        -4.9114    0.0734   -1.1697 C.2       1 <0>         0.5796
     16 N2         -6.2531    0.2199   -1.0850 N.am      1 <0>        -0.6639
     17 C14        -7.0662   -0.8739   -1.1282 C.2       1 <0>         0.6510
     18 N3         -6.5925   -2.0918   -1.2601 N.2       1 <0>        -0.5926
     19 N4         -8.4240   -0.6956   -1.0397 N.pl3     1 <0>        -0.8264
     20 O1         -4.1725    1.0422   -1.1315 O.2       1 <0>        -0.5176
     21 C15         3.6569    2.1603   -0.0218 C.2       1 <0>         0.5440
     22 O2          3.6435    3.3757   -0.0155 O.2       1 <0>        -0.5540
     23 N5          4.8314    1.4994   -0.0366 N.am      1 <0>        -0.6761
     24 C16         6.0919    2.2459   -0.0451 C.3       1 <0>         0.0737
     25 C17         7.1909    1.3839   -0.6698 C.3       1 <0>        -0.0820
     26 C18         6.8626    1.1271   -2.1419 C.3       1 <0>        -0.1773
     27 C19         7.9450    0.2781   -2.7573 C.2       1 <0>         0.4913
     28 O3          8.8913   -0.0876   -2.0810 O.co2     1 <0>        -0.6979
     29 O4          7.8745   -0.0430   -3.9313 O.co2     1 <0>        -0.7197
     30 C20         6.4748    2.6012    1.3685 C.2       1 <0>         0.4984
     31 O5          6.1458    1.8742    2.2903 O.co2     1 <0>        -0.6988
     32 O6          7.1137    3.6157    1.5903 O.co2     1 <0>        -0.7018
     33 H2         -0.9598    1.9054    0.0260 H         1 <0>         0.1242
     34 H3          1.1508    3.1682    0.0077 H         1 <0>         0.1322
     35 H4          3.3358   -0.5219   -0.0330 H         1 <0>         0.1284
     36 H5          1.2138   -1.7656   -0.0191 H         1 <0>         0.1232
     37 H6         -1.1489   -1.7256    0.5176 H         1 <0>         0.0685
     38 H7         -2.0557   -0.1941    0.5345 H         1 <0>         0.0710
     39 H8         -1.8929   -0.0704   -1.9367 H         1 <0>         0.0815
     40 H9         -0.9861   -1.6019   -1.9536 H         1 <0>         0.0747
     41 H10        -2.3774   -3.8321   -1.6109 H         1 <0>         0.1802
     42 H11        -8.7910    0.1976   -0.9480 H         1 <0>         0.4143
     43 H12        -9.0168   -1.4628   -1.0688 H         1 <0>         0.4255
     44 H13         4.8421    0.5294   -0.0416 H         1 <0>         0.3913
     45 H14         5.9699    3.1583   -0.6287 H         1 <0>         0.0776
     46 H15         8.1462    1.9034   -0.5958 H         1 <0>         0.0722
     47 H16         7.2523    0.4333   -0.1400 H         1 <0>         0.0600
     48 H17         5.9072    0.6076   -2.2159 H         1 <0>         0.0515
     49 H18         6.8012    2.0777   -2.6717 H         1 <0>         0.0527
     50 H19        -6.6381    1.1054   -0.9929 H         1 <0>         0.4126
@<TRIPOS>BOND
     1    1    6 ar
     2    1    2 ar
     3    1   33 1
     4    2    3 ar
     5    2   34 1
     6    3    4 ar
     7    3   21 1
     8    4    5 ar
     9    4   35 1
    10    5    6 ar
    11    5   36 1
    12    6    7 1
    13    7    8 1
    14    7   37 1
    15    7   38 1
    16    8    9 1
    17    8   39 1
    18    8   40 1
    19    9   14 1
    20    9   10 2
    21   10   11 1
    22   10   41 1
    23   11   12 1
    24   11   13 1
    25   13   18 1
    26   13   14 2
    27   14   15 1
    28   15   16 am
    29   15   20 2
    30   16   17 1
    31   16   50 1
    32   17   18 2
    33   17   19 1
    34   19   42 1
    35   19   43 1
    36   21   22 2
    37   21   23 am
    38   23   24 1
    39   23   44 1
    40   24   25 1
    41   24   30 1
    42   24   45 1
    43   25   26 1
    44   25   46 1
    45   25   47 1
    46   26   27 1
    47   26   48 1
    48   26   49 1
    49   27   28 2
    50   27   29 1
    51   30   31 2
    52   30   32 1
@<TRIPOS>MOLECULE
CHEMBL59843__1
   50    52     0     0     0
SMALL
USER_CHARGES

@<TRIPOS>ATOM
      1 C1         -0.0167    1.3794    0.0096 C.ar      1 <0>        -0.1237
      2 C2          1.1667    2.0884    0.0021 C.ar      1 <0>        -0.0650
      3 C3          2.3848    1.4070   -0.0132 C.ar      1 <0>        -0.1108
      4 C4          2.3966    0.0113   -0.0208 C.ar      1 <0>        -0.0853
      5 C5          1.2061   -0.6856   -0.0132 C.ar      1 <0>        -0.1248
      6 C6          0.0021   -0.0041    0.0020 C.ar      1 <0>        -0.0756
      7 C7         -1.2946   -0.7719    0.0103 C.3       1 <0>        -0.0645
      8 C8         -1.7472   -1.0241   -1.4293 C.3       1 <0>        -0.0478
      9 C9         -3.0439   -1.7919   -1.4210 C.2       1 <0>        -0.0685
     10 C10        -3.1874   -3.1243   -1.5149 C.2       1 <0>        -0.0065
     11 N1         -4.5199   -3.4490   -1.4706 N.pl3     1 <0>        -0.5467
     12 H1         -4.8743   -4.3506   -1.5205 H         1 <0>         0.4184
     13 C11        -5.2735   -2.3188   -1.3457 C.2       1 <0>         0.3387
     14 C12        -4.3891   -1.2318   -1.3029 C.2       1 <0>        -0.3095
     15 C13        -4.9114    0.0734   -1.1697 C.2       1 <0>         0.5795
     16 N2         -6.2531    0.2199   -1.0850 N.am      1 <0>        -0.6639
     17 C14        -7.0662   -0.8739   -1.1282 C.2       1 <0>         0.6510
     18 N3         -6.5925   -2.0918   -1.2601 N.2       1 <0>        -0.5926
     19 N4         -8.4240   -0.6956   -1.0397 N.pl3     1 <0>        -0.8264
     20 O1         -4.1725    1.0422   -1.1315 O.2       1 <0>        -0.5172
     21 C15         3.6569    2.1603   -0.0218 C.2       1 <0>         0.5510
     22 O2          3.6435    3.3757   -0.0155 O.2       1 <0>        -0.5556
     23 N5          4.8314    1.4994   -0.0366 N.am      1 <0>        -0.6767
     24 C16         6.0919    2.2459   -0.0451 C.3       1 <0>         0.0726
     25 C17         7.2027    1.3778    0.5494 C.3       1 <0>        -0.0801
     26 C18         6.9032    1.1060    2.0250 C.3       1 <0>        -0.1779
     27 C19         7.9973    0.2510    2.6105 C.2       1 <0>         0.4911
     28 O3          8.9302   -0.1078    1.9123 O.co2     1 <0>        -0.6973
     29 O4          7.9496   -0.0820    3.7824 O.co2     1 <0>        -0.7205
     30 C20         6.4472    2.6155   -1.4622 C.2       1 <0>         0.4957
     31 O5          5.7154    2.2860   -2.3799 O.co2     1 <0>        -0.6965
     32 O6          7.4666    3.2441   -1.6909 O.co2     1 <0>        -0.7009
     33 H2         -0.9598    1.9054    0.0260 H         1 <0>         0.1238
     34 H3          1.1508    3.1682    0.0077 H         1 <0>         0.1319
     35 H4          3.3358   -0.5219   -0.0330 H         1 <0>         0.1274
     36 H5          1.2138   -1.7656   -0.0191 H         1 <0>         0.1227
     37 H6         -1.1489   -1.7256    0.5176 H         1 <0>         0.0683
     38 H7         -2.0557   -0.1941    0.5345 H         1 <0>         0.0708
     39 H8         -1.8929   -0.0704   -1.9367 H         1 <0>         0.0817
     40 H9         -0.9861   -1.6019   -1.9536 H         1 <0>         0.0745
     41 H10        -2.3774   -3.8321   -1.6109 H         1 <0>         0.1800
     42 H11        -8.7910    0.1976   -0.9480 H         1 <0>         0.4143
     43 H12        -9.0168   -1.4628   -1.0688 H         1 <0>         0.4255
     44 H13         4.8421    0.5294   -0.0416 H         1 <0>         0.3891
     45 H14         5.9814    3.1523    0.5501 H         1 <0>         0.0776
     46 H15         7.2537    0.4325    0.0090 H         1 <0>         0.0548
     47 H16         8.1565    1.8981    0.4621 H         1 <0>         0.0788
     48 H17         6.8522    2.0513    2.5654 H         1 <0>         0.0521
     49 H18         5.9494    0.5857    2.1123 H         1 <0>         0.0504
     50 H19        -6.6381    1.1054   -0.9929 H         1 <0>         0.4126
@<TRIPOS>BOND
     1    1    6 ar
     2    1    2 ar
     3    1   33 1
     4    2    3 ar
     5    2   34 1
     6    3    4 ar
     7    3   21 1
     8    4    5 ar
     9    4   35 1
    10    5    6 ar
    11    5   36 1
    12    6    7 1
    13    7    8 1
    14    7   37 1
    15    7   38 1
    16    8    9 1
    17    8   39 1
    18    8   40 1
    19    9   14 1
    20    9   10 2
    21   10   11 1
    22   10   41 1
    23   11   12 1
    24   11   13 1
    25   13   18 1
    26   13   14 2
    27   14   15 1
    28   15   16 am
    29   15   20 2
    30   16   17 1
    31   16   50 1
    32   17   18 2
    33   17   19 1
    34   19   42 1
    35   19   43 1
    36   21   22 2
    37   21   23 am
    38   23   24 1
    39   23   44 1
    40   24   25 1
    41   24   30 1
    42   24   45 1
    43   25   26 1
    44   25   46 1
    45   25   47 1
    46   26   27 1
    47   26   48 1
    48   26   49 1
    49   27   28 2
    50   27   29 1
    51   30   31 2
    52   30   32 1
@<TRIPOS>MOLECULE
CHEMBL420279
   64    67     0     0     0
SMALL
USER_CHARGES

@<TRIPOS>ATOM
      1 C1          0.0180   -1.1779   -0.0044 C.1       1 <0>        -0.1877
      2 C2          0.0021   -0.0041    0.0020 C.1       1 <0>        -0.2081
      3 C3         -0.0179    1.4678    0.0101 C.3       1 <0>         0.2311
      4 N1          1.3565    1.9749   -0.0003 N.pl3     1 <0>        -0.6170
      5 C4          2.0316    2.2352   -1.2741 C.3       1 <0>         0.1649
      6 C5          1.7714    3.6575   -1.6991 C.ar      1 <0>        -0.1239
      7 C6          0.6635    3.9495   -2.4842 C.ar      1 <0>        -0.0594
      8 C7          0.4033    5.2297   -2.8844 C.ar      1 <0>        -0.1107
      9 C8          1.2604    6.2655   -2.5012 C.ar      1 <0>         0.1593
     10 C9          2.3881    5.9698   -1.7018 C.ar      1 <0>        -0.1946
     11 C10         2.6316    4.6576   -1.3006 C.ar      1 <0>        -0.0204
     12 C11         3.2736    7.0772   -1.3131 C.2       1 <0>         0.5497
     13 N2          2.9503    8.3173   -1.7485 N.am      1 <0>        -0.6526
     14 C12         1.8376    8.5120   -2.5200 C.2       1 <0>         0.4399
     15 N3          1.0372    7.5408   -2.8766 N.2       1 <0>        -0.5132
     16 C13         1.5250    9.8842   -2.9718 C.ar      1 <0>        -0.0702
     17 C14         2.3585   10.9461   -2.6166 C.ar      1 <0>        -0.0932
     18 C15         2.0613   12.2243   -3.0421 C.ar      1 <0>        -0.1205
     19 C16         0.9400   12.4549   -3.8192 C.ar      1 <0>        -0.0944
     20 C17         0.1095   11.4069   -4.1744 C.ar      1 <0>        -0.1262
     21 C18         0.3983   10.1230   -3.7605 C.ar      1 <0>        -0.0537
     22 O1          4.2597    6.8861   -0.6256 O.2       1 <0>        -0.4944
     23 C19         2.0203    2.2090    1.1989 C.ar      1 <0>         0.2211
     24 C20         3.3243    2.6963    1.1874 C.ar      1 <0>        -0.2049
     25 C21         3.9839    2.9291    2.3725 C.ar      1 <0>        -0.0165
     26 C22         3.3431    2.6757    3.5888 C.ar      1 <0>        -0.1601
     27 C23         2.0335    2.1865    3.5970 C.ar      1 <0>        -0.0371
     28 C24         1.3773    1.9611    2.4086 C.ar      1 <0>        -0.1965
     29 C25         4.0474    2.9237    4.8610 C.2       1 <0>         0.5489
     30 O2          5.1866    3.3489    4.8524 O.2       1 <0>        -0.5582
     31 N4          3.4283    2.6790    6.0329 N.am      1 <0>        -0.6790
     32 C26         4.1278    2.9253    7.2963 C.3       1 <0>         0.0746
     33 H1          4.7738    3.7968    7.1901 H         1 <0>         0.0768
     34 C27         3.1043    3.1811    8.4044 C.3       1 <0>        -0.0819
     35 C28         2.3414    4.4733    8.1056 C.3       1 <0>        -0.1770
     36 C29         1.3333    4.7253    9.1971 C.2       1 <0>         0.4914
     37 O3          1.2342    3.9438   10.1277 O.co2     1 <0>        -0.6979
     38 O4          0.6168    5.7106    9.1495 O.co2     1 <0>        -0.7202
     39 C30         4.9623    1.7217    7.6514 C.2       1 <0>         0.4986
     40 O5          5.9918    1.8605    8.2896 O.co2     1 <0>        -0.7025
     41 O6          4.6079    0.6092    7.3004 O.co2     1 <0>        -0.6991
     42 H2          0.0322   -2.2278   -0.0102 H         1 <0>         0.2148
     43 H3         -0.5451    1.8289   -0.8729 H         1 <0>         0.0946
     44 H4         -0.5281    1.8193    0.9069 H         1 <0>         0.1028
     45 H5          3.1042    2.0821   -1.1549 H         1 <0>         0.0903
     46 H6          1.6495    1.5533   -2.0338 H         1 <0>         0.0863
     47 H7         -0.0018    3.1530   -2.7829 H         1 <0>         0.1320
     48 H8         -0.4619    5.4408   -3.4954 H         1 <0>         0.1387
     49 H9          3.4892    4.4259   -0.6865 H         1 <0>         0.1441
     50 H10         3.2338   10.7675   -2.0098 H         1 <0>         0.1255
     51 H11         2.7051   13.0469   -2.7676 H         1 <0>         0.1317
     52 H12         0.7119   13.4575   -4.1496 H         1 <0>         0.1280
     53 H13        -0.7646   11.5937   -4.7806 H         1 <0>         0.1314
     54 H14        -0.2481    9.3051   -4.0425 H         1 <0>         0.1444
     55 H15         3.5109    9.0727   -1.5117 H         1 <0>         0.4164
     56 H16         3.8190    2.8915    0.2474 H         1 <0>         0.1221
     57 H17         4.9956    3.3068    2.3629 H         1 <0>         0.1341
     58 H18         1.5360    1.9894    4.5351 H         1 <0>         0.1293
     59 H19         0.3640    1.5876    2.4143 H         1 <0>         0.1237
     60 H20         2.5196    2.3398    6.0397 H         1 <0>         0.3899
     61 H21         2.4033    2.3478    8.4510 H         1 <0>         0.0596
     62 H22         3.6197    3.2762    9.3602 H         1 <0>         0.0717
     63 H23         3.0424    5.3066    8.0590 H         1 <0>         0.0524
     64 H24         1.8260    4.3781    7.1499 H         1 <0>         0.0512
@<TRIPOS>BOND
     1    1    2 3
     2    1   42 1
     3    2    3 1
     4    3    4 1
     5    3   43 1
     6    3   44 1
     7    4    5 1
     8    4   23 1
     9    5   45 1
    10    5   46 1
    11    5    6 1
    12    6   11 ar
    13    6    7 ar
    14    7   47 1
    15    7    8 ar
    16    8   48 1
    17    8    9 ar
    18    9   10 ar
    19    9   15 1
    20   10   12 1
    21   10   11 ar
    22   11   49 1
    23   12   22 2
    24   12   13 am
    25   13   14 1
    26   13   55 1
    27   14   15 2
    28   14   16 1
    29   16   21 ar
    30   16   17 ar
    31   17   18 ar
    32   17   50 1
    33   18   19 ar
    34   18   51 1
    35   19   20 ar
    36   19   52 1
    37   20   21 ar
    38   20   53 1
    39   21   54 1
    40   23   28 ar
    41   23   24 ar
    42   24   25 ar
    43   24   56 1
    44   25   26 ar
    45   25   57 1
    46   26   27 ar
    47   26   29 1
    48   27   28 ar
    49   27   58 1
    50   28   59 1
    51   29   30 2
    52   29   31 am
    53   31   32 1
    54   31   60 1
    55   32   33 1
    56   32   34 1
    57   32   39 1
    58   34   35 1
    59   34   61 1
    60   34   62 1
    61   35   36 1
    62   35   63 1
    63   35   64 1
    64   36   37 2
    65   36   38 1
    66   39   40 2
    67   39   41 1
@<TRIPOS>MOLECULE
CHEMBL169921
   54    58     0     0     0
SMALL
USER_CHARGES

@<TRIPOS>ATOM
      1 C1         -0.0151    1.3660    0.2302 C.ar      1 <0>        -0.1263
      2 C2          1.1690    2.0793    0.2233 C.ar      1 <0>        -0.0206
      3 C3          2.3662    1.4292   -0.0109 C.ar      1 <0>        -0.6496
      4 C4          2.3795    0.0657   -0.2378 C.ar      1 <0>        -0.0167
      5 C5          1.1955   -0.6478   -0.2301 C.ar      1 <0>        -0.1195
      6 C6         -0.0019    0.0025    0.0028 C.ar      1 <0>        -0.0598
      7 C7         -1.2926   -0.7753    0.0107 C.3       1 <0>         0.1520
      8 N1         -1.7874   -0.9143   -1.3612 N.pl3     1 <0>        -0.6084
      9 C8         -1.4906   -2.1221   -2.1432 C.3       1 <0>         0.1159
     10 C9         -1.0682   -1.6774   -3.5496 C.3       1 <0>        -0.1418
     11 C10        -2.2457   -0.9686   -4.2181 C.3       1 <0>        -0.0812
     12 C11        -2.7910    0.1115   -3.3201 C.ar      1 <0>        -0.1013
     13 C12        -2.5571    0.1009   -1.9479 C.ar      1 <0>         0.2688
     14 C13        -3.0770    1.0996   -1.1376 C.ar      1 <0>        -0.1857
     15 C14        -3.8382    2.1154   -1.6930 C.ar      1 <0>         0.1370
     16 C15        -4.0812    2.1308   -3.0760 C.ar      1 <0>         0.0028
     17 C16        -3.5425    1.1233   -3.8835 C.ar      1 <0>        -0.0361
     18 N2         -4.8446    3.2274   -3.3352 N.pl3     1 <0>        -0.5246
     19 C17        -5.0807    3.8720   -2.2208 C.cat     1 <0>         0.6466
     20 N3         -4.4819    3.2274   -1.1755 N.pl3     1 <0>        -0.5740
     21 H1         -4.5038    3.4979   -0.2443 H         1 <0>         0.4571
     22 N4         -5.8235    5.0305   -2.1172 N.pl3     1 <0>        -0.7988
     23 S1          3.8753    2.3387   -0.0208 S.o2      1 <0>         2.5804
     24 O1          4.7955    1.5901   -0.8032 O.2       1 <0>        -0.9300
     25 O2          3.5362    3.6849   -0.3240 O.2       1 <0>        -0.9338
     26 C18         4.4967    2.3350    1.6280 C.ar      1 <0>        -0.6730
     27 C19         4.1298    3.3381    2.5061 C.ar      1 <0>        -0.0049
     28 C20         4.6159    3.3377    3.7992 C.ar      1 <0>        -0.1659
     29 C21         5.4725    2.3294    4.2166 C.ar      1 <0>         0.1712
     30 C22         5.8387    1.3238    3.3338 C.ar      1 <0>        -0.1644
     31 C23         5.3458    1.3259    2.0433 C.ar      1 <0>        -0.0034
     32 O3          5.9524    2.3270    5.4881 O.3       1 <0>        -0.4952
     33 H2         -0.9500    1.8731    0.4176 H         1 <0>         0.1277
     34 H3          1.1586    3.1446    0.4006 H         1 <0>         0.1430
     35 H4          3.3148   -0.4421   -0.4215 H         1 <0>         0.1468
     36 H5          1.2058   -1.7130   -0.4081 H         1 <0>         0.1352
     37 H6         -1.1187   -1.7636    0.4362 H         1 <0>         0.1037
     38 H7         -2.0321   -0.2460    0.6117 H         1 <0>         0.0910
     39 H8         -0.6792   -2.6769   -1.6721 H         1 <0>         0.0917
     40 H9         -2.3799   -2.7492   -2.2058 H         1 <0>         0.0764
     41 H10        -0.2231   -0.9928   -3.4776 H         1 <0>         0.0765
     42 H11        -0.7848   -2.5496   -4.1387 H         1 <0>         0.0926
     43 H12        -1.9121   -0.5228   -5.1552 H         1 <0>         0.0898
     44 H13        -3.0317   -1.6947   -4.4256 H         1 <0>         0.0892
     45 H14        -2.8887    1.0851   -0.0743 H         1 <0>         0.1464
     46 H15        -3.7252    1.1293   -4.9479 H         1 <0>         0.1501
     47 H16        -6.2167    5.4271   -2.9102 H         1 <0>         0.4418
     48 H17        -5.9524    5.4481   -1.2512 H         1 <0>         0.4416
     49 H18         3.4629    4.1227    2.1806 H         1 <0>         0.1460
     50 H19         4.3296    4.1218    4.4844 H         1 <0>         0.1427
     51 H20         6.5055    0.5378    3.6564 H         1 <0>         0.1439
     52 H21         5.6271    0.5409    1.3570 H         1 <0>         0.1481
     53 H22         5.3979    1.8452    6.1169 H         1 <0>         0.4027
     54 H23        -5.1646    3.4912   -4.2121 H         1 <0>         0.4561
@<TRIPOS>BOND
     1    1    6 ar
     2    1    2 ar
     3    1   33 1
     4    2    3 ar
     5    2   34 1
     6    3    4 ar
     7    3   23 1
     8    4    5 ar
     9    4   35 1
    10    5    6 ar
    11    5   36 1
    12    6    7 1
    13    7    8 1
    14    7   37 1
    15    7   38 1
    16    8   13 1
    17    8    9 1
    18    9   10 1
    19    9   39 1
    20    9   40 1
    21   10   11 1
    22   10   41 1
    23   10   42 1
    24   11   12 1
    25   11   43 1
    26   11   44 1
    27   12   17 ar
    28   12   13 ar
    29   13   14 ar
    30   14   15 ar
    31   14   45 1
    32   15   20 1
    33   15   16 ar
    34   16   17 ar
    35   16   18 1
    36   17   46 1
    37   18   19 2
    38   18   54 1
    39   19   20 1
    40   19   22 1
    41   20   21 1
    42   22   47 1
    43   22   48 1
    44   23   24 2
    45   23   25 2
    46   23   26 1
    47   26   31 ar
    48   26   27 ar
    49   27   28 ar
    50   27   49 1
    51   28   29 ar
    52   28   50 1
    53   29   30 ar
    54   29   32 1
    55   30   31 ar
    56   30   51 1
    57   31   52 1
    58   32   53 1
@<TRIPOS>MOLECULE
CHEMBL36623
   50    52     0     0     0
SMALL
USER_CHARGES

@<TRIPOS>ATOM
      1 C1         -0.0169    1.3937    0.0097 C.ar      1 <0>        -0.0172
      2 C2          1.1662    2.0965    0.0022 C.ar      1 <0>        -0.2044
      3 C3          2.3811    1.4169   -0.0131 C.ar      1 <0>         0.2257
      4 C4          2.4034    0.0249   -0.0208 C.ar      1 <0>        -0.2029
      5 C5          1.2237   -0.6836   -0.0138 C.ar      1 <0>        -0.0355
      6 C6          0.0021   -0.0041    0.0020 C.ar      1 <0>        -0.1662
      7 C7         -1.2644   -0.7605    0.0105 C.2       1 <0>         0.5497
      8 O1         -2.3263   -0.1682    0.0243 O.2       1 <0>        -0.5608
      9 N1         -1.2445   -2.1081    0.0031 N.am      1 <0>        -0.6793
     10 C8         -2.5022   -2.8593    0.0116 C.3       1 <0>         0.0746
     11 C9         -2.2637   -4.2464    0.6114 C.3       1 <0>        -0.0822
     12 C10        -1.8670   -4.1047    2.0823 C.3       1 <0>        -0.1768
     13 C11        -1.6321   -5.4710    2.6731 C.2       1 <0>         0.4912
     14 O2         -1.7693   -6.4659    1.9818 O.co2     1 <0>        -0.6980
     15 O3         -1.3049   -5.5815    3.8424 O.co2     1 <0>        -0.7204
     16 C12        -3.0110   -3.0030   -1.3996 C.2       1 <0>         0.4980
     17 O4         -2.2242   -3.0459   -2.3300 O.co2     1 <0>        -0.6987
     18 O5         -4.2095   -3.0763   -1.6111 O.co2     1 <0>        -0.7031
     19 N2          3.5749    2.1299   -0.0211 N.pl3     1 <0>        -0.7401
     20 C13         4.8542    1.4162   -0.0371 C.3       1 <0>         0.1794
     21 C14         5.9850    2.4124   -0.0431 C.ar      1 <0>         0.0907
     22 C15         6.5805    2.7719    1.1615 C.ar      1 <0>        -0.0940
     23 C16         7.6094    3.6755    1.1715 C.ar      1 <0>        -0.0857
     24 C17         8.0296    4.2123   -0.0541 C.ar      1 <0>         0.1619
     25 C18         7.3784    3.8007   -1.2365 C.ar      1 <0>        -0.0182
     26 N3          6.3897    2.9175   -1.1867 N.ar      1 <0>        -0.3883
     27 C19         7.8374    4.3784   -2.5116 C.2       1 <0>         0.5753
     28 N4          8.8556    5.2678   -2.4662 N.am      1 <0>        -0.6650
     29 C20         9.4280    5.6083   -1.2757 C.2       1 <0>         0.6420
     30 N5          9.0381    5.1100   -0.1289 N.2       1 <0>        -0.5840
     31 N6         10.4583    6.5145   -1.2798 N.pl3     1 <0>        -0.8234
     32 O6          7.3195    4.0663   -3.5678 O.2       1 <0>        -0.4738
     33 H1         -0.9590    1.9215    0.0260 H         1 <0>         0.1327
     34 H2          1.1522    3.1764    0.0078 H         1 <0>         0.1191
     35 H3          3.3474   -0.4995   -0.0326 H         1 <0>         0.1233
     36 H4          1.2416   -1.7634   -0.0204 H         1 <0>         0.1288
     37 H5         -0.3974   -2.5806   -0.0078 H         1 <0>         0.3903
     38 H6         -3.2399   -2.3261    0.6112 H         1 <0>         0.0768
     39 H7         -3.1771   -4.8365    0.5367 H         1 <0>         0.0714
     40 H8         -1.4631   -4.7456    0.0656 H         1 <0>         0.0597
     41 H9         -0.9536   -3.5146    2.1570 H         1 <0>         0.0518
     42 H10        -2.6677   -3.6056    2.6281 H         1 <0>         0.0524
     43 H11         3.5606    3.0997   -0.0161 H         1 <0>         0.3974
     44 H12         4.9299    0.7860    0.8490 H         1 <0>         0.0824
     45 H13         4.9126    0.7950   -0.9309 H         1 <0>         0.0816
     46 H14         6.2317    2.3393    2.0875 H         1 <0>         0.1513
     47 H15         8.0836    3.9668    2.0970 H         1 <0>         0.1515
     48 H16        10.7640    6.8976   -2.1169 H         1 <0>         0.4136
     49 H17        10.8810    6.7720   -0.4456 H         1 <0>         0.4289
     50 H18         9.1819    5.6669   -3.2879 H         1 <0>         0.4166
@<TRIPOS>BOND
     1    1    6 ar
     2    1    2 ar
     3    1   33 1
     4    2    3 ar
     5    2   34 1
     6    3    4 ar
     7    3   19 1
     8    4    5 ar
     9    4   35 1
    10    5    6 ar
    11    5   36 1
    12    6    7 1
    13    7    8 2
    14    7    9 am
    15    9   10 1
    16    9   37 1
    17   10   11 1
    18   10   16 1
    19   10   38 1
    20   11   12 1
    21   11   39 1
    22   11   40 1
    23   12   13 1
    24   12   41 1
    25   12   42 1
    26   13   14 2
    27   13   15 1
    28   16   17 2
    29   16   18 1
    30   19   20 1
    31   19   43 1
    32   20   21 1
    33   20   44 1
    34   20   45 1
    35   21   26 ar
    36   21   22 ar
    37   22   23 ar
    38   22   46 1
    39   23   24 ar
    40   23   47 1
    41   24   30 1
    42   24   25 ar
    43   25   26 ar
    44   25   27 1
    45   27   28 am
    46   27   32 2
    47   28   29 1
    48   28   50 1
    49   29   30 2
    50   29   31 1
    51   31   48 1
    52   31   49 1
@<TRIPOS>MOLECULE
CHEMBL36623__1
   50    52     0     0     0
SMALL
USER_CHARGES

@<TRIPOS>ATOM
      1 C1         -0.0169    1.3937    0.0097 C.ar      1 <0>        -0.0173
      2 C2          1.1662    2.0965    0.0022 C.ar      1 <0>        -0.2033
      3 C3          2.3811    1.4169   -0.0131 C.ar      1 <0>         0.2247
      4 C4          2.4034    0.0249   -0.0208 C.ar      1 <0>        -0.2024
      5 C5          1.2237   -0.6836   -0.0138 C.ar      1 <0>        -0.0356
      6 C6          0.0021   -0.0041    0.0020 C.ar      1 <0>        -0.1650
      7 C7         -1.2644   -0.7605    0.0105 C.2       1 <0>         0.5495
      8 O1         -2.3263   -0.1682    0.0243 O.2       1 <0>        -0.5603
      9 N1         -1.2445   -2.1081    0.0031 N.am      1 <0>        -0.6791
     10 C8         -2.5022   -2.8593    0.0116 C.3       1 <0>         0.0746
     11 C9         -2.2637   -4.2464    0.6114 C.3       1 <0>        -0.0823
     12 C10        -1.8670   -4.1047    2.0823 C.3       1 <0>        -0.1767
     13 C11        -1.6321   -5.4710    2.6731 C.2       1 <0>         0.4911
     14 O2         -1.7693   -6.4659    1.9818 O.co2     1 <0>        -0.6977
     15 O3         -1.3049   -5.5815    3.8424 O.co2     1 <0>        -0.7207
     16 C12        -3.0110   -3.0030   -1.3996 C.2       1 <0>         0.4979
     17 O4         -2.2242   -3.0459   -2.3300 O.co2     1 <0>        -0.6984
     18 O5         -4.2095   -3.0763   -1.6111 O.co2     1 <0>        -0.7030
     19 N2          3.5749    2.1299   -0.0211 N.pl3     1 <0>        -0.7405
     20 C13         4.8542    1.4162   -0.0371 C.3       1 <0>         0.1775
     21 C14         5.9850    2.4124   -0.0431 C.ar      1 <0>         0.0935
     22 C15         6.5807    2.7725    1.1587 C.ar      1 <0>        -0.0924
     23 C16         7.6187    3.6860    1.1596 C.ar      1 <0>        -0.1162
     24 C17         8.0275    4.2128   -0.0626 C.ar      1 <0>         0.1383
     25 C18         7.3783    3.8018   -1.2371 C.ar      1 <0>         0.0132
     26 N3          6.3911    2.9188   -1.1867 N.ar      1 <0>        -0.3803
     27 C19         7.8378    4.3818   -2.5174 C.2       1 <0>         0.5579
     28 N4          8.8445    5.2651   -2.4928 N.2       1 <0>        -0.6391
     29 C20         9.4261    5.6232   -1.3673 C.2       1 <0>         0.6763
     30 N5          9.0554    5.1309   -0.1567 N.pl3     1 <0>        -0.6456
     31 N6         10.4475    6.5299   -1.4191 N.pl3     1 <0>        -0.8168
     32 O6          7.3129    4.0632   -3.5708 O.2       1 <0>        -0.4612
     33 H1         -0.9590    1.9215    0.0260 H         1 <0>         0.1331
     34 H2          1.1522    3.1764    0.0078 H         1 <0>         0.1193
     35 H3          3.3474   -0.4995   -0.0326 H         1 <0>         0.1232
     36 H4          1.2416   -1.7634   -0.0204 H         1 <0>         0.1291
     37 H5         -0.3974   -2.5806   -0.0078 H         1 <0>         0.3903
     38 H6         -3.2399   -2.3261    0.6112 H         1 <0>         0.0768
     39 H7         -3.1771   -4.8365    0.5367 H         1 <0>         0.0715
     40 H8         -1.4631   -4.7456    0.0656 H         1 <0>         0.0598
     41 H9         -0.9536   -3.5146    2.1570 H         1 <0>         0.0516
     42 H10        -2.6677   -3.6056    2.6281 H         1 <0>         0.0524
     43 H11         3.5606    3.0997   -0.0161 H         1 <0>         0.3975
     44 H12         4.9299    0.7860    0.8490 H         1 <0>         0.0829
     45 H13         4.9126    0.7950   -0.9309 H         1 <0>         0.0843
     46 H14         6.2350    2.3419    2.0869 H         1 <0>         0.1549
     47 H15         8.0978    3.9823    2.0810 H         1 <0>         0.1511
     48 H16        10.7292    6.8949   -2.2726 H         1 <0>         0.4324
     49 H17        10.8907    6.8085   -0.6025 H         1 <0>         0.4124
     50 H18         9.5143    5.4257    0.6455 H         1 <0>         0.4168
@<TRIPOS>BOND
     1    1    6 ar
     2    1    2 ar
     3    1   33 1
     4    2    3 ar
     5    2   34 1
     6    3    4 ar
     7    3   19 1
     8    4    5 ar
     9    4   35 1
    10    5    6 ar
    11    5   36 1
    12    6    7 1
    13    7    8 2
    14    7    9 am
    15    9   10 1
    16    9   37 1
    17   10   11 1
    18   10   16 1
    19   10   38 1
    20   11   12 1
    21   11   39 1
    22   11   40 1
    23   12   13 1
    24   12   41 1
    25   12   42 1
    26   13   14 2
    27   13   15 1
    28   16   17 2
    29   16   18 1
    30   19   20 1
    31   19   43 1
    32   20   21 1
    33   20   44 1
    34   20   45 1
    35   21   26 ar
    36   21   22 ar
    37   22   23 ar
    38   22   46 1
    39   23   24 ar
    40   23   47 1
    41   24   30 1
    42   24   25 ar
    43   25   26 ar
    44   25   27 1
    45   27   28 1
    46   27   32 2
    47   28   29 2
    48   29   30 1
    49   29   31 1
    50   30   50 1
    51   31   48 1
    52   31   49 1
@<TRIPOS>MOLECULE
CHEMBL36623__2
   50    52     0     0     0
SMALL
USER_CHARGES

@<TRIPOS>ATOM
      1 C1         -0.0169    1.3937    0.0097 C.ar      1 <0>        -0.0176
      2 C2          1.1662    2.0965    0.0022 C.ar      1 <0>        -0.2041
      3 C3          2.3811    1.4169   -0.0131 C.ar      1 <0>         0.2246
      4 C4          2.4034    0.0249   -0.0208 C.ar      1 <0>        -0.2029
      5 C5          1.2237   -0.6836   -0.0138 C.ar      1 <0>        -0.0365
      6 C6          0.0021   -0.0041    0.0020 C.ar      1 <0>        -0.1635
      7 C7         -1.2644   -0.7605    0.0105 C.2       1 <0>         0.5566
      8 O1         -2.3263   -0.1682    0.0243 O.2       1 <0>        -0.5623
      9 N1         -1.2445   -2.1081    0.0031 N.am      1 <0>        -0.6797
     10 C8         -2.5022   -2.8593    0.0116 C.3       1 <0>         0.0734
     11 C9         -2.2758   -4.2399   -0.6078 C.3       1 <0>        -0.0800
     12 C10        -1.9084   -4.0824   -2.0846 C.3       1 <0>        -0.1778
     13 C11        -1.6854   -5.4422   -2.6946 C.2       1 <0>         0.4910
     14 O2         -1.8089   -6.4445   -2.0115 O.co2     1 <0>        -0.6979
     15 O3         -1.3815   -5.5401   -3.8713 O.co2     1 <0>        -0.7207
     16 C12        -2.9829   -3.0182    1.4310 C.2       1 <0>         0.4956
     17 O4         -2.3350   -2.5475    2.3503 O.co2     1 <0>        -0.6970
     18 O5         -4.0198   -3.6173    1.6600 O.co2     1 <0>        -0.7021
     19 N2          3.5749    2.1299   -0.0211 N.pl3     1 <0>        -0.7404
     20 C13         4.8542    1.4162   -0.0371 C.3       1 <0>         0.1797
     21 C14         5.9850    2.4124   -0.0431 C.ar      1 <0>         0.0908
     22 C15         6.5805    2.7719    1.1615 C.ar      1 <0>        -0.0942
     23 C16         7.6094    3.6755    1.1715 C.ar      1 <0>        -0.0858
     24 C17         8.0296    4.2123   -0.0541 C.ar      1 <0>         0.1618
     25 C18         7.3784    3.8007   -1.2365 C.ar      1 <0>        -0.0180
     26 N3          6.3897    2.9175   -1.1867 N.ar      1 <0>        -0.3882
     27 C19         7.8374    4.3784   -2.5116 C.2       1 <0>         0.5752
     28 N4          8.8556    5.2678   -2.4662 N.am      1 <0>        -0.6649
     29 C20         9.4280    5.6083   -1.2757 C.2       1 <0>         0.6420
     30 N5          9.0381    5.1100   -0.1289 N.2       1 <0>        -0.5841
     31 N6         10.4583    6.5145   -1.2798 N.pl3     1 <0>        -0.8235
     32 O6          7.3195    4.0663   -3.5678 O.2       1 <0>        -0.4736
     33 H1         -0.9590    1.9215    0.0260 H         1 <0>         0.1324
     34 H2          1.1522    3.1764    0.0078 H         1 <0>         0.1187
     35 H3          3.3474   -0.4995   -0.0326 H         1 <0>         0.1228
     36 H4          1.2416   -1.7634   -0.0204 H         1 <0>         0.1278
     37 H5         -0.3974   -2.5806   -0.0078 H         1 <0>         0.3881
     38 H6         -3.2516   -2.3197   -0.5676 H         1 <0>         0.0768
     39 H7         -1.4645   -4.7448   -0.0833 H         1 <0>         0.0544
     40 H8         -3.1876   -4.8309   -0.5212 H         1 <0>         0.0779
     41 H9         -2.7197   -3.5775   -2.6090 H         1 <0>         0.0519
     42 H10        -0.9966   -3.4914   -2.1711 H         1 <0>         0.0509
     43 H11         3.5606    3.0997   -0.0161 H         1 <0>         0.3973
     44 H12         4.9299    0.7860    0.8490 H         1 <0>         0.0819
     45 H13         4.9126    0.7950   -0.9309 H         1 <0>         0.0816
     46 H14         6.2317    2.3393    2.0875 H         1 <0>         0.1512
     47 H15         8.0836    3.9668    2.0970 H         1 <0>         0.1513
     48 H16        10.7640    6.8976   -2.1169 H         1 <0>         0.4136
     49 H17        10.8810    6.7720   -0.4456 H         1 <0>         0.4288
     50 H18         9.1819    5.6669   -3.2879 H         1 <0>         0.4166
@<TRIPOS>BOND
     1    1    6 ar
     2    1    2 ar
     3    1   33 1
     4    2    3 ar
     5    2   34 1
     6    3    4 ar
     7    3   19 1
     8    4    5 ar
     9    4   35 1
    10    5    6 ar
    11    5   36 1
    12    6    7 1
    13    7    8 2
    14    7    9 am
    15    9   10 1
    16    9   37 1
    17   10   11 1
    18   10   16 1
    19   10   38 1
    20   11   12 1
    21   11   39 1
    22   11   40 1
    23   12   13 1
    24   12   41 1
    25   12   42 1
    26   13   14 2
    27   13   15 1
    28   16   17 2
    29   16   18 1
    30   19   20 1
    31   19   43 1
    32   20   21 1
    33   20   44 1
    34   20   45 1
    35   21   26 ar
    36   21   22 ar
    37   22   23 ar
    38   22   46 1
    39   23   24 ar
    40   23   47 1
    41   24   30 1
    42   24   25 ar
    43   25   26 ar
    44   25   27 1
    45   27   28 am
    46   27   32 2
    47   28   29 1
    48   28   50 1
    49   29   30 2
    50   29   31 1
    51   31   48 1
    52   31   49 1
@<TRIPOS>MOLECULE
CHEMBL36623__3
   50    52     0     0     0
SMALL
USER_CHARGES

@<TRIPOS>ATOM
      1 C1         -0.0169    1.3937    0.0097 C.ar      1 <0>        -0.0177
      2 C2          1.1662    2.0965    0.0022 C.ar      1 <0>        -0.2030
      3 C3          2.3811    1.4169   -0.0131 C.ar      1 <0>         0.2236
      4 C4          2.4034    0.0249   -0.0208 C.ar      1 <0>        -0.2024
      5 C5          1.2237   -0.6836   -0.0138 C.ar      1 <0>        -0.0367
      6 C6          0.0021   -0.0041    0.0020 C.ar      1 <0>        -0.1623
      7 C7         -1.2644   -0.7605    0.0105 C.2       1 <0>         0.5564
      8 O1         -2.3263   -0.1682    0.0243 O.2       1 <0>        -0.5618
      9 N1         -1.2445   -2.1081    0.0031 N.am      1 <0>        -0.6795
     10 C8         -2.5022   -2.8593    0.0116 C.3       1 <0>         0.0734
     11 C9         -2.2758   -4.2399   -0.6078 C.3       1 <0>        -0.0799
     12 C10        -1.9084   -4.0824   -2.0846 C.3       1 <0>        -0.1779
     13 C11        -1.6854   -5.4422   -2.6946 C.2       1 <0>         0.4909
     14 O2         -1.8089   -6.4445   -2.0115 O.co2     1 <0>        -0.6980
     15 O3         -1.3815   -5.5401   -3.8713 O.co2     1 <0>        -0.7204
     16 C12        -2.9829   -3.0182    1.4310 C.2       1 <0>         0.4958
     17 O4         -2.3350   -2.5475    2.3503 O.co2     1 <0>        -0.6974
     18 O5         -4.0198   -3.6173    1.6600 O.co2     1 <0>        -0.7019
     19 N2          3.5749    2.1299   -0.0211 N.pl3     1 <0>        -0.7408
     20 C13         4.8542    1.4162   -0.0371 C.3       1 <0>         0.1777
     21 C14         5.9850    2.4124   -0.0431 C.ar      1 <0>         0.0937
     22 C15         6.5807    2.7725    1.1587 C.ar      1 <0>        -0.0925
     23 C16         7.6187    3.6860    1.1596 C.ar      1 <0>        -0.1163
     24 C17         8.0275    4.2128   -0.0626 C.ar      1 <0>         0.1382
     25 C18         7.3783    3.8018   -1.2371 C.ar      1 <0>         0.0134
     26 N3          6.3911    2.9188   -1.1867 N.ar      1 <0>        -0.3802
     27 C19         7.8378    4.3818   -2.5174 C.2       1 <0>         0.5578
     28 N4          8.8445    5.2651   -2.4928 N.2       1 <0>        -0.6390
     29 C20         9.4261    5.6232   -1.3673 C.2       1 <0>         0.6762
     30 N5          9.0554    5.1309   -0.1567 N.pl3     1 <0>        -0.6456
     31 N6         10.4475    6.5299   -1.4191 N.pl3     1 <0>        -0.8169
     32 O6          7.3129    4.0632   -3.5708 O.2       1 <0>        -0.4610
     33 H1         -0.9590    1.9215    0.0260 H         1 <0>         0.1329
     34 H2          1.1522    3.1764    0.0078 H         1 <0>         0.1190
     35 H3          3.3474   -0.4995   -0.0326 H         1 <0>         0.1227
     36 H4          1.2416   -1.7634   -0.0204 H         1 <0>         0.1281
     37 H5         -0.3974   -2.5806   -0.0078 H         1 <0>         0.3881
     38 H6         -3.2516   -2.3197   -0.5676 H         1 <0>         0.0770
     39 H7         -1.4645   -4.7448   -0.0833 H         1 <0>         0.0543
     40 H8         -3.1876   -4.8309   -0.5212 H         1 <0>         0.0780
     41 H9         -2.7197   -3.5775   -2.6090 H         1 <0>         0.0521
     42 H10        -0.9966   -3.4914   -2.1711 H         1 <0>         0.0509
     43 H11         3.5606    3.0997   -0.0161 H         1 <0>         0.3974
     44 H12         4.9299    0.7860    0.8490 H         1 <0>         0.0824
     45 H13         4.9126    0.7950   -0.9309 H         1 <0>         0.0843
     46 H14         6.2350    2.3419    2.0869 H         1 <0>         0.1547
     47 H15         8.0978    3.9823    2.0810 H         1 <0>         0.1509
     48 H16        10.7292    6.8949   -2.2726 H         1 <0>         0.4324
     49 H17        10.8907    6.8085   -0.6025 H         1 <0>         0.4124
     50 H18         9.5143    5.4257    0.6455 H         1 <0>         0.4167
@<TRIPOS>BOND
     1    1    6 ar
     2    1    2 ar
     3    1   33 1
     4    2    3 ar
     5    2   34 1
     6    3    4 ar
     7    3   19 1
     8    4    5 ar
     9    4   35 1
    10    5    6 ar
    11    5   36 1
    12    6    7 1
    13    7    8 2
    14    7    9 am
    15    9   10 1
    16    9   37 1
    17   10   11 1
    18   10   16 1
    19   10   38 1
    20   11   12 1
    21   11   39 1
    22   11   40 1
    23   12   13 1
    24   12   41 1
    25   12   42 1
    26   13   14 2
    27   13   15 1
    28   16   17 2
    29   16   18 1
    30   19   20 1
    31   19   43 1
    32   20   21 1
    33   20   44 1
    34   20   45 1
    35   21   26 ar
    36   21   22 ar
    37   22   23 ar
    38   22   46 1
    39   23   24 ar
    40   23   47 1
    41   24   30 1
    42   24   25 ar
    43   25   26 ar
    44   25   27 1
    45   27   28 1
    46   27   32 2
    47   28   29 2
    48   29   30 1
    49   29   31 1
    50   30   50 1
    51   31   48 1
    52   31   49 1
@<TRIPOS>MOLECULE
CHEMBL57310
   30    32     0     0     0
SMALL
USER_CHARGES

@<TRIPOS>ATOM
      1 C1         -0.0184    1.5028    0.0103 C.3       1 <0>        -0.0986
      2 C2          0.0021   -0.0041    0.0020 C.2       1 <0>         0.1113
      3 C3          0.0075   -0.7769   -1.1036 C.2       1 <0>        -0.1531
      4 C4          0.0291   -2.1671   -0.6428 C.2       1 <0>        -0.2863
      5 C5          0.0351   -2.1196    0.7588 C.2       1 <0>         0.3584
      6 N1          0.0241   -0.8056    1.1226 N.pl3     1 <0>        -0.5435
      7 H1          0.0289   -0.4822    2.0371 H         1 <0>         0.4246
      8 N2          0.0548   -3.2686    1.4512 N.2       1 <0>        -0.5927
      9 C6          0.0684   -4.4309    0.8400 C.2       1 <0>         0.6606
     10 N3          0.0638   -4.5354   -0.5197 N.am      1 <0>        -0.6615
     11 C7          0.0441   -3.4222   -1.2871 C.2       1 <0>         0.5787
     12 O1          0.0390   -3.5010   -2.5036 O.2       1 <0>        -0.5081
     13 N4          0.0884   -5.5774    1.5941 N.pl3     1 <0>        -0.8195
     14 S1         -0.0082   -0.2221   -2.7760 S.3       1 <0>         0.0782
     15 C8          1.6975   -0.0649   -3.1890 C.ar      1 <0>        -0.0555
     16 C9          2.6910   -0.3686   -2.2569 C.ar      1 <0>        -0.1773
     17 C10         4.0139   -0.2326   -2.6201 C.ar      1 <0>         0.1140
     18 N5          4.3450    0.1783   -3.8302 N.ar      1 <0>        -0.4945
     19 C11         3.4354    0.4754   -4.7399 C.ar      1 <0>         0.1152
     20 C12         2.0906    0.3611   -4.4586 C.ar      1 <0>        -0.1581
     21 H2          1.0042    1.8801    0.0026 H         1 <0>         0.0848
     22 H3         -0.5455    1.8639   -0.8728 H         1 <0>         0.0991
     23 H4         -0.5286    1.8543    0.9071 H         1 <0>         0.0779
     24 H5          0.0922   -5.5210    2.5625 H         1 <0>         0.4292
     25 H6          0.0986   -6.4441    1.1587 H         1 <0>         0.4176
     26 H7          2.4271   -0.7049   -1.2651 H         1 <0>         0.1293
     27 H8          4.7895   -0.4650   -1.9053 H         1 <0>         0.1536
     28 H9          3.7489    0.8085   -5.7183 H         1 <0>         0.1601
     29 H10         1.3518    0.6016   -5.2087 H         1 <0>         0.1395
     30 H11         0.0749   -5.4108   -0.9375 H         1 <0>         0.4167
@<TRIPOS>BOND
     1    1    2 1
     2    1   21 1
     3    1   22 1
     4    1   23 1
     5    2    6 1
     6    2    3 2
     7    3    4 1
     8    3   14 1
     9    4   11 1
    10    4    5 2
    11    5    6 1
    12    5    8 1
    13    6    7 1
    14    8    9 2
    15    9   10 1
    16    9   13 1
    17   10   11 am
    18   10   30 1
    19   11   12 2
    20   13   24 1
    21   13   25 1
    22   14   15 1
    23   15   20 ar
    24   15   16 ar
    25   16   17 ar
    26   16   26 1
    27   17   18 ar
    28   17   27 1
    29   18   19 ar
    30   19   20 ar
    31   19   28 1
    32   20   29 1
@<TRIPOS>MOLECULE
CHEMBL57310__1
   30    32     0     0     0
SMALL
USER_CHARGES

@<TRIPOS>ATOM
      1 C1         -0.0184    1.5028    0.0103 C.3       1 <0>        -0.0966
      2 C2          0.0021   -0.0041    0.0020 C.2       1 <0>         0.1079
      3 C3          0.0076   -0.7799   -1.1028 C.2       1 <0>        -0.1569
      4 C4          0.0285   -2.1660   -0.6351 C.2       1 <0>        -0.2322
      5 C5          0.0342   -2.1139    0.7565 C.2       1 <0>         0.2918
      6 N1          0.0241   -0.8076    1.1201 N.pl3     1 <0>        -0.5472
      7 H1          0.0288   -0.4858    2.0351 H         1 <0>         0.4215
      8 N2          0.0535   -3.2989    1.4536 N.pl3     1 <0>        -0.6302
      9 C6          0.0666   -4.4872    0.7961 C.2       1 <0>         0.6786
     10 N3          0.0622   -4.5749   -0.5165 N.2       1 <0>        -0.6297
     11 C7          0.0433   -3.4749   -1.2875 C.2       1 <0>         0.5621
     12 O1          0.0386   -3.5658   -2.5051 O.2       1 <0>        -0.4864
     13 N4          0.0857   -5.6425    1.5303 N.pl3     1 <0>        -0.8182
     14 S1         -0.0084   -0.2315   -2.7772 S.3       1 <0>         0.0855
     15 C8          1.6972   -0.0755   -3.1909 C.ar      1 <0>        -0.0559
     16 C9          2.6908   -0.3754   -2.2578 C.ar      1 <0>        -0.1768
     17 C10         4.0137   -0.2401   -2.6214 C.ar      1 <0>         0.1144
     18 N5          4.3445    0.1672   -3.8329 N.ar      1 <0>        -0.4940
     19 C11         3.4348    0.4606   -4.7436 C.ar      1 <0>         0.1160
     20 C12         2.0901    0.3458   -4.4622 C.ar      1 <0>        -0.1568
     21 H2          1.0042    1.8801    0.0026 H         1 <0>         0.0856
     22 H3         -0.5455    1.8639   -0.8728 H         1 <0>         0.1012
     23 H4         -0.5286    1.8543    0.9071 H         1 <0>         0.0770
     24 H5          0.0895   -5.6013    2.4994 H         1 <0>         0.4118
     25 H6          0.0953   -6.5024    1.0814 H         1 <0>         0.4350
     26 H7          2.4271   -0.7084   -1.2648 H         1 <0>         0.1276
     27 H8          4.7894   -0.4699   -1.9059 H         1 <0>         0.1534
     28 H9          3.7481    0.7904   -5.7231 H         1 <0>         0.1606
     29 H10         1.3512    0.5829   -5.2133 H         1 <0>         0.1403
     30 H11         0.0581   -3.2861    2.4235 H         1 <0>         0.4105
@<TRIPOS>BOND
     1    1    2 1
     2    1   21 1
     3    1   22 1
     4    1   23 1
     5    2    6 1
     6    2    3 2
     7    3    4 1
     8    3   14 1
     9    4   11 1
    10    4    5 2
    11    5    6 1
    12    5    8 1
    13    6    7 1
    14    8    9 1
    15    8   30 1
    16    9   10 2
    17    9   13 1
    18   10   11 1
    19   11   12 2
    20   13   24 1
    21   13   25 1
    22   14   15 1
    23   15   20 ar
    24   15   16 ar
    25   16   17 ar
    26   16   26 1
    27   17   18 ar
    28   17   27 1
    29   18   19 ar
    30   19   20 ar
    31   19   28 1
    32   20   29 1
@<TRIPOS>MOLECULE
CHEMBL1161432
   69    72     0     0     0
SMALL
USER_CHARGES

@<TRIPOS>ATOM
      1 C1          0.0341    1.7484   -0.0408 C.3       1 <0>         0.0950
      2 N1          0.1212    0.2863   -0.0689 N.pl3     1 <0>        -0.6244
      3 C2          0.0323   -0.4769    1.1785 C.3       1 <0>         0.1146
      4 C3         -1.4384   -0.7114    1.5292 C.3       1 <0>         0.1260
      5 C4         -1.5388   -1.5883    2.7859 C.3       1 <0>         0.1258
      6 N2         -0.9502   -2.9007    2.4827 N.pl3     1 <0>        -0.7201
      7 C5         -1.2844   -3.5302    1.2940 C.2       1 <0>         0.3763
      8 C6         -1.8578   -2.7999    0.2625 C.2       1 <0>        -0.0663
      9 C7         -2.1855   -3.4511   -0.9314 C.2       1 <0>         0.5544
     10 N3         -1.9310   -4.7737   -1.0356 N.am      1 <0>        -0.6500
     11 C8         -1.3695   -5.4460    0.0060 C.2       1 <0>         0.6307
     12 N4         -1.0582   -4.8392    1.1314 N.2       1 <0>        -0.6019
     13 N5         -1.1219   -6.7896   -0.1204 N.pl3     1 <0>        -0.8298
     14 O1         -2.6910   -2.8374   -1.8590 O.2       1 <0>        -0.4921
     15 N6         -2.1062   -1.4193    0.4250 N.pl3     1 <0>        -0.5868
     16 C9         -3.0082   -0.7081   -0.4842 C.3       1 <0>         0.1730
     17 C10        -4.4033   -0.7144    0.0855 C.2       1 <0>        -0.2409
     18 C11        -4.8404    0.3194    0.8361 C.2       1 <0>         0.1443
     19 N7         -6.1103    0.2978    1.3453 N.am      1 <0>        -0.6398
     20 C12        -6.9273   -0.7438    1.1052 C.2       1 <0>         0.6996
     21 N8         -6.5172   -1.7875    0.3608 N.am      1 <0>        -0.6627
     22 C13        -5.2752   -1.8016   -0.1639 C.2       1 <0>         0.5412
     23 O2         -4.9052   -2.7429   -0.8422 O.2       1 <0>        -0.4659
     24 O3         -8.0519   -0.7424    1.5675 O.2       1 <0>        -0.5578
     25 C14         0.2883   -0.3772   -1.2794 C.ar      1 <0>         0.2348
     26 C15         0.4519   -1.7596   -1.2971 C.ar      1 <0>        -0.1859
     27 C16         0.6175   -2.4190   -2.4935 C.ar      1 <0>        -0.0171
     28 C17         0.6213   -1.6993   -3.6919 C.ar      1 <0>        -0.1596
     29 C18         0.4567   -0.3113   -3.6708 C.ar      1 <0>        -0.0394
     30 C19         0.2859    0.3417   -2.4716 C.ar      1 <0>        -0.2042
     31 C20         0.7990   -2.4031   -4.9762 C.2       1 <0>         0.5520
     32 O4          0.9424   -3.6105   -4.9930 O.2       1 <0>        -0.5639
     33 N9          0.8024   -1.7079   -6.1308 N.am      1 <0>        -0.6793
     34 C21         0.9789   -2.4068   -7.4061 C.3       1 <0>         0.0756
     35 C22         1.5571   -1.4402   -8.4417 C.3       1 <0>        -0.0819
     36 C23         2.9637   -1.0165   -8.0143 C.3       1 <0>        -0.1764
     37 C24         3.5332   -0.0644   -9.0343 C.2       1 <0>         0.4914
     38 O5          2.8750    0.2464  -10.0123 O.co2     1 <0>        -0.6979
     39 O6          4.6521    0.3951   -8.8813 O.co2     1 <0>        -0.7207
     40 C25        -0.3542   -2.9194   -7.8868 C.2       1 <0>         0.4983
     41 O7         -1.3770   -2.3213   -7.5992 O.co2     1 <0>        -0.6965
     42 O8         -0.4101   -3.9323   -8.5631 O.co2     1 <0>        -0.7050
     43 H1          1.0274    2.1686    0.1170 H         1 <0>         0.0438
     44 H2         -0.3655    2.1068   -0.9895 H         1 <0>         0.0712
     45 H3         -0.6244    2.0576    0.7709 H         1 <0>         0.0563
     46 H4          0.5336   -1.4367    1.0537 H         1 <0>         0.0838
     47 H5          0.5126    0.0822    1.9815 H         1 <0>         0.0697
     48 H6         -1.9318    0.2444    1.7057 H         1 <0>         0.0857
     49 H7         -0.9917   -1.1207    3.6045 H         1 <0>         0.0862
     50 H8         -2.5851   -1.7109    3.0655 H         1 <0>         0.0597
     51 H9         -0.3362   -3.3201    3.1057 H         1 <0>         0.4020
     52 H10        -1.3467   -7.2487   -0.9448 H         1 <0>         0.4139
     53 H11        -0.7221   -7.2803    0.6146 H         1 <0>         0.4214
     54 H12        -2.6684    0.3208   -0.6019 H         1 <0>         0.0689
     55 H13        -3.0101   -1.2034   -1.4552 H         1 <0>         0.1486
     56 H14        -4.1907    1.1592    1.0338 H         1 <0>         0.1723
     57 H15        -6.4242    1.0403    1.8848 H         1 <0>         0.4315
     58 H16        -7.1190   -2.5305    0.1976 H         1 <0>         0.4265
     59 H17         0.4493   -2.3150   -0.3708 H         1 <0>         0.1170
     60 H18         0.7447   -3.4914   -2.5065 H         1 <0>         0.1180
     61 H19         0.4595    0.2475   -4.5950 H         1 <0>         0.1242
     62 H20         0.1540    1.4135   -2.4550 H         1 <0>         0.1205
     63 H21         0.6880   -0.7448   -6.1173 H         1 <0>         0.3894
     64 H22         1.6626   -3.2447   -7.2697 H         1 <0>         0.0750
     65 H23         1.6055   -1.9339   -9.4123 H         1 <0>         0.0707
     66 H24         0.9184   -0.5599   -8.5133 H         1 <0>         0.0592
     67 H25         2.9153   -0.5228   -7.0437 H         1 <0>         0.0514
     68 H26         3.6024   -1.8969   -7.9427 H         1 <0>         0.0518
     69 H27        -2.1492   -5.2454   -1.8547 H         1 <0>         0.4144
@<TRIPOS>BOND
     1    1    2 1
     2    1   43 1
     3    1   44 1
     4    1   45 1
     5    2    3 1
     6    2   25 1
     7    3    4 1
     8    3   46 1
     9    3   47 1
    10    4   15 1
    11    4    5 1
    12    4   48 1
    13    5    6 1
    14    5   49 1
    15    5   50 1
    16    6    7 1
    17    6   51 1
    18    7   12 1
    19    7    8 2
    20    8    9 1
    21    8   15 1
    22    9   10 am
    23    9   14 2
    24   10   11 1
    25   10   69 1
    26   11   12 2
    27   11   13 1
    28   13   52 1
    29   13   53 1
    30   15   16 1
    31   16   54 1
    32   16   55 1
    33   16   17 1
    34   17   22 1
    35   17   18 2
    36   18   56 1
    37   18   19 1
    38   19   20 am
    39   19   57 1
    40   20   24 2
    41   20   21 am
    42   21   58 1
    43   21   22 am
    44   22   23 2
    45   25   30 ar
    46   25   26 ar
    47   26   27 ar
    48   26   59 1
    49   27   28 ar
    50   27   60 1
    51   28   29 ar
    52   28   31 1
    53   29   30 ar
    54   29   61 1
    55   30   62 1
    56   31   32 2
    57   31   33 am
    58   33   34 1
    59   33   63 1
    60   34   35 1
    61   34   40 1
    62   34   64 1
    63   35   36 1
    64   35   65 1
    65   35   66 1
    66   36   37 1
    67   36   67 1
    68   36   68 1
    69   37   38 2
    70   37   39 1
    71   40   41 2
    72   40   42 1
@<TRIPOS>MOLECULE
CHEMBL1161432__1
   69    72     0     0     0
SMALL
USER_CHARGES

@<TRIPOS>ATOM
      1 C1          0.0567    1.7331   -0.0829 C.3       1 <0>         0.0957
      2 N1          0.1365    0.2704   -0.0965 N.pl3     1 <0>        -0.6260
      3 C2          0.0620   -0.4790    1.1602 C.3       1 <0>         0.1169
      4 C3         -1.4046   -0.7011    1.5354 C.3       1 <0>         0.1177
      5 C4         -1.4918   -1.5691    2.7998 C.3       1 <0>         0.1313
      6 N2         -0.9316   -2.8921    2.4881 N.pl3     1 <0>        -0.7388
      7 C5         -1.2934   -3.5156    1.3106 C.2       1 <0>         0.3048
      8 C6         -1.8628   -2.7992    0.2972 C.2       1 <0>        -0.0099
      9 C7         -2.2171   -3.4616   -0.8955 C.2       1 <0>         0.5465
     10 N3         -1.9904   -4.7807   -1.0091 N.2       1 <0>        -0.6119
     11 C8         -1.4436   -5.4621   -0.0254 C.2       1 <0>         0.6458
     12 N4         -1.0864   -4.8603    1.1417 N.pl3     1 <0>        -0.6425
     13 N5         -1.2294   -6.8079   -0.1794 N.pl3     1 <0>        -0.8294
     14 O1         -2.7268   -2.8411   -1.8183 O.2       1 <0>        -0.4659
     15 N6         -2.0942   -1.4145    0.4483 N.pl3     1 <0>        -0.5846
     16 C9         -3.0002   -0.7037   -0.4573 C.3       1 <0>         0.1698
     17 C10        -4.3909   -0.7012    0.1234 C.2       1 <0>        -0.2392
     18 C11        -4.8176    0.3380    0.8725 C.2       1 <0>         0.1430
     19 N7         -6.0835    0.3243    1.3917 N.am      1 <0>        -0.6405
     20 C12        -6.9069   -0.7148    1.1629 C.2       1 <0>         0.6997
     21 N8         -6.5071   -1.7638    0.4203 N.am      1 <0>        -0.6629
     22 C13        -5.2693   -1.7857   -0.1140 C.2       1 <0>         0.5343
     23 O2         -4.9087   -2.7319   -0.7906 O.2       1 <0>        -0.4522
     24 O3         -8.0277   -0.7064    1.6340 O.2       1 <0>        -0.5589
     25 C14         0.2829   -0.4068   -1.3021 C.ar      1 <0>         0.2302
     26 C15         0.4360   -1.7905   -1.3075 C.ar      1 <0>        -0.1879
     27 C16         0.5812   -2.4635   -2.4989 C.ar      1 <0>        -0.0099
     28 C17         0.5748   -1.7562   -3.7048 C.ar      1 <0>        -0.1539
     29 C18         0.4208   -0.3668   -3.6960 C.ar      1 <0>        -0.0399
     30 C19         0.2704    0.2998   -2.5016 C.ar      1 <0>        -0.2046
     31 C20         0.7306   -2.4746   -4.9838 C.2       1 <0>         0.5561
     32 O4          0.8648   -3.6831   -4.9899 O.2       1 <0>        -0.5607
     33 N9          0.7243   -1.7913   -6.1455 N.am      1 <0>        -0.6799
     34 C21         0.8790   -2.5047   -7.4157 C.3       1 <0>         0.0750
     35 C22         1.4509   -1.5533   -8.4686 C.3       1 <0>        -0.0804
     36 C23         2.8661   -1.1358   -8.0638 C.3       1 <0>        -0.1765
     37 C24         3.4293   -0.1986   -9.1009 C.2       1 <0>         0.4914
     38 O5          2.7608    0.1070  -10.0736 O.co2     1 <0>        -0.6977
     39 O6          4.5535    0.2539   -8.9672 O.co2     1 <0>        -0.7219
     40 C25        -0.4640   -3.0122   -7.8738 C.2       1 <0>         0.4960
     41 O7         -1.4794   -2.6476   -7.3059 O.co2     1 <0>        -0.6923
     42 O8         -0.5351   -3.7872   -8.8123 O.co2     1 <0>        -0.7063
     43 H1          1.0545    2.1502    0.0528 H         1 <0>         0.0432
     44 H2         -0.3580    2.0832   -1.0282 H         1 <0>         0.0717
     45 H3         -0.5860    2.0543    0.7368 H         1 <0>         0.0554
     46 H4          0.5558   -1.4430    1.0382 H         1 <0>         0.0819
     47 H5          0.5576    0.0857    1.9499 H         1 <0>         0.0692
     48 H6         -1.8894    0.2591    1.7121 H         1 <0>         0.0880
     49 H7         -0.9185   -1.1070    3.6034 H         1 <0>         0.0880
     50 H8         -2.5336   -1.6731    3.1033 H         1 <0>         0.0617
     51 H9         -0.3152   -3.3213    3.1018 H         1 <0>         0.3962
     52 H10        -1.4803   -7.2474   -1.0069 H         1 <0>         0.4311
     53 H11        -0.8269   -7.3203    0.5392 H         1 <0>         0.4037
     54 H12        -2.6569    0.3233   -0.5824 H         1 <0>         0.0709
     55 H13        -3.0118   -1.2035   -1.4258 H         1 <0>         0.1548
     56 H14        -4.1628    1.1759    1.0611 H         1 <0>         0.1716
     57 H15        -6.3900    1.0707    1.9301 H         1 <0>         0.4310
     58 H16        -7.1134   -2.5050    0.2654 H         1 <0>         0.4268
     59 H17         0.4412   -2.3363   -0.3755 H         1 <0>         0.1123
     60 H18         0.7003   -3.5369   -2.5025 H         1 <0>         0.1212
     61 H19         0.4159    0.1824   -4.6259 H         1 <0>         0.1239
     62 H20         0.1467    1.3727   -2.4944 H         1 <0>         0.1198
     63 H21         0.6172   -0.8273   -6.1406 H         1 <0>         0.3871
     64 H22         1.5582   -3.3463   -7.2794 H         1 <0>         0.0749
     65 H23         1.4831   -2.0573   -9.4346 H         1 <0>         0.0748
     66 H24         0.8179   -0.6688   -8.5412 H         1 <0>         0.0552
     67 H25         2.8339   -0.6318   -7.0979 H         1 <0>         0.0508
     68 H26         3.4990   -2.0202   -7.9913 H         1 <0>         0.0515
     69 H27        -0.6851   -5.3826    1.8538 H         1 <0>         0.4036
@<TRIPOS>BOND
     1    1    2 1
     2    1   43 1
     3    1   44 1
     4    1   45 1
     5    2    3 1
     6    2   25 1
     7    3    4 1
     8    3   46 1
     9    3   47 1
    10    4   15 1
    11    4    5 1
    12    4   48 1
    13    5    6 1
    14    5   49 1
    15    5   50 1
    16    6    7 1
    17    6   51 1
    18    7   12 1
    19    7    8 2
    20    8    9 1
    21    8   15 1
    22    9   10 1
    23    9   14 2
    24   10   11 2
    25   11   12 1
    26   11   13 1
    27   12   69 1
    28   13   52 1
    29   13   53 1
    30   15   16 1
    31   16   54 1
    32   16   55 1
    33   16   17 1
    34   17   22 1
    35   17   18 2
    36   18   56 1
    37   18   19 1
    38   19   20 am
    39   19   57 1
    40   20   24 2
    41   20   21 am
    42   21   58 1
    43   21   22 am
    44   22   23 2
    45   25   30 ar
    46   25   26 ar
    47   26   27 ar
    48   26   59 1
    49   27   28 ar
    50   27   60 1
    51   28   29 ar
    52   28   31 1
    53   29   30 ar
    54   29   61 1
    55   30   62 1
    56   31   32 2
    57   31   33 am
    58   33   34 1
    59   33   63 1
    60   34   35 1
    61   34   40 1
    62   34   64 1
    63   35   36 1
    64   35   65 1
    65   35   66 1
    66   36   37 1
    67   36   67 1
    68   36   68 1
    69   37   38 2
    70   37   39 1
    71   40   41 2
    72   40   42 1
@<TRIPOS>MOLECULE
CHEMBL1161432__2
   69    72     0     0     0
SMALL
USER_CHARGES

@<TRIPOS>ATOM
      1 C1          0.0341    1.7484   -0.0408 C.3       1 <0>         0.0953
      2 N1          0.1212    0.2863   -0.0689 N.pl3     1 <0>        -0.6246
      3 C2          0.0323   -0.4769    1.1785 C.3       1 <0>         0.1147
      4 C3         -1.4384   -0.7114    1.5292 C.3       1 <0>         0.1260
      5 C4         -1.5388   -1.5883    2.7859 C.3       1 <0>         0.1256
      6 N2         -0.9502   -2.9007    2.4827 N.pl3     1 <0>        -0.7199
      7 C5         -1.2844   -3.5302    1.2940 C.2       1 <0>         0.3768
      8 C6         -1.8578   -2.7999    0.2625 C.2       1 <0>        -0.0662
      9 C7         -2.1855   -3.4511   -0.9314 C.2       1 <0>         0.5557
     10 N3         -1.9310   -4.7737   -1.0356 N.am      1 <0>        -0.6499
     11 C8         -1.3695   -5.4460    0.0060 C.2       1 <0>         0.6303
     12 N4         -1.0582   -4.8392    1.1314 N.2       1 <0>        -0.6011
     13 N5         -1.1219   -6.7896   -0.1204 N.pl3     1 <0>        -0.8297
     14 O1         -2.6910   -2.8374   -1.8590 O.2       1 <0>        -0.4952
     15 N6         -2.1062   -1.4193    0.4250 N.pl3     1 <0>        -0.5866
     16 C9         -3.0082   -0.7081   -0.4842 C.3       1 <0>         0.1735
     17 C10        -4.4033   -0.7144    0.0855 C.2       1 <0>        -0.2419
     18 C11        -4.8404    0.3194    0.8361 C.2       1 <0>         0.1453
     19 N7         -6.1103    0.2978    1.3453 N.am      1 <0>        -0.6396
     20 C12        -6.9273   -0.7438    1.1052 C.2       1 <0>         0.6996
     21 N8         -6.5172   -1.7875    0.3608 N.am      1 <0>        -0.6626
     22 C13        -5.2752   -1.8016   -0.1639 C.2       1 <0>         0.5422
     23 O2         -4.9052   -2.7429   -0.8422 O.2       1 <0>        -0.4677
     24 O3         -8.0519   -0.7424    1.5675 O.2       1 <0>        -0.5573
     25 C14         0.2883   -0.3772   -1.2794 C.ar      1 <0>         0.2338
     26 C15         0.4519   -1.7596   -1.2971 C.ar      1 <0>        -0.1855
     27 C16         0.6175   -2.4190   -2.4935 C.ar      1 <0>        -0.0171
     28 C17         0.6213   -1.6993   -3.6919 C.ar      1 <0>        -0.1567
     29 C18         0.4567   -0.3113   -3.6708 C.ar      1 <0>        -0.0405
     30 C19         0.2859    0.3417   -2.4716 C.ar      1 <0>        -0.2042
     31 C20         0.7990   -2.4031   -4.9762 C.2       1 <0>         0.5590
     32 O4          0.9424   -3.6105   -4.9930 O.2       1 <0>        -0.5654
     33 N9          0.8024   -1.7079   -6.1308 N.am      1 <0>        -0.6798
     34 C21         0.9789   -2.4068   -7.4061 C.3       1 <0>         0.0750
     35 C22         0.3494   -1.5824   -8.5309 C.3       1 <0>        -0.0796
     36 C23        -1.1637   -1.5025   -8.3192 C.3       1 <0>        -0.1769
     37 C24        -1.7838   -0.6905   -9.4270 C.2       1 <0>         0.4914
     38 O5         -1.0805   -0.2194  -10.3045 O.co2     1 <0>        -0.6986
     39 O6         -2.9886   -0.5047   -9.4457 O.co2     1 <0>        -0.7204
     40 C25         2.4496   -2.5893   -7.6796 C.2       1 <0>         0.4957
     41 O7          3.2739   -2.1740   -6.8831 O.co2     1 <0>        -0.6972
     42 O8          2.8152   -3.1522   -8.6975 O.co2     1 <0>        -0.7031
     43 H1          1.0274    2.1686    0.1170 H         1 <0>         0.0433
     44 H2         -0.3655    2.1068   -0.9895 H         1 <0>         0.0712
     45 H3         -0.6244    2.0576    0.7709 H         1 <0>         0.0562
     46 H4          0.5336   -1.4367    1.0537 H         1 <0>         0.0837
     47 H5          0.5126    0.0822    1.9815 H         1 <0>         0.0695
     48 H6         -1.9318    0.2444    1.7057 H         1 <0>         0.0859
     49 H7         -0.9917   -1.1207    3.6045 H         1 <0>         0.0863
     50 H8         -2.5851   -1.7109    3.0655 H         1 <0>         0.0599
     51 H9         -0.3362   -3.3201    3.1057 H         1 <0>         0.4021
     52 H10        -1.3467   -7.2487   -0.9448 H         1 <0>         0.4135
     53 H11        -0.7221   -7.2803    0.6146 H         1 <0>         0.4216
     54 H12        -2.6684    0.3208   -0.6019 H         1 <0>         0.0691
     55 H13        -3.0101   -1.2034   -1.4552 H         1 <0>         0.1483
     56 H14        -4.1907    1.1592    1.0338 H         1 <0>         0.1724
     57 H15        -6.4242    1.0403    1.8848 H         1 <0>         0.4317
     58 H16        -7.1190   -2.5305    0.1976 H         1 <0>         0.4265
     59 H17         0.4493   -2.3150   -0.3708 H         1 <0>         0.1164
     60 H18         0.7447   -3.4914   -2.5065 H         1 <0>         0.1178
     61 H19         0.4595    0.2475   -4.5950 H         1 <0>         0.1232
     62 H20         0.1540    1.4135   -2.4550 H         1 <0>         0.1200
     63 H21         0.6880   -0.7448   -6.1173 H         1 <0>         0.3872
     64 H22         0.4950   -3.3822   -7.3559 H         1 <0>         0.0754
     65 H23         0.7709   -0.5772   -8.5242 H         1 <0>         0.0537
     66 H24         0.5576   -2.0573   -9.4897 H         1 <0>         0.0771
     67 H25        -1.5852   -2.5077   -8.3258 H         1 <0>         0.0513
     68 H26        -1.3719   -1.0276   -7.3604 H         1 <0>         0.0510
     69 H27        -2.1492   -5.2454   -1.8547 H         1 <0>         0.4133
@<TRIPOS>BOND
     1    1    2 1
     2    1   43 1
     3    1   44 1
     4    1   45 1
     5    2    3 1
     6    2   25 1
     7    3    4 1
     8    3   46 1
     9    3   47 1
    10    4   15 1
    11    4    5 1
    12    4   48 1
    13    5    6 1
    14    5   49 1
    15    5   50 1
    16    6    7 1
    17    6   51 1
    18    7   12 1
    19    7    8 2
    20    8    9 1
    21    8   15 1
    22    9   10 am
    23    9   14 2
    24   10   11 1
    25   10   69 1
    26   11   12 2
    27   11   13 1
    28   13   52 1
    29   13   53 1
    30   15   16 1
    31   16   54 1
    32   16   55 1
    33   16   17 1
    34   17   22 1
    35   17   18 2
    36   18   56 1
    37   18   19 1
    38   19   20 am
    39   19   57 1
    40   20   24 2
    41   20   21 am
    42   21   58 1
    43   21   22 am
    44   22   23 2
    45   25   30 ar
    46   25   26 ar
    47   26   27 ar
    48   26   59 1
    49   27   28 ar
    50   27   60 1
    51   28   29 ar
    52   28   31 1
    53   29   30 ar
    54   29   61 1
    55   30   62 1
    56   31   32 2
    57   31   33 am
    58   33   34 1
    59   33   63 1
    60   34   35 1
    61   34   40 1
    62   34   64 1
    63   35   36 1
    64   35   65 1
    65   35   66 1
    66   36   37 1
    67   36   67 1
    68   36   68 1
    69   37   38 2
    70   37   39 1
    71   40   41 2
    72   40   42 1
@<TRIPOS>MOLECULE
CHEMBL1161432__3
   69    72     0     0     0
SMALL
USER_CHARGES

@<TRIPOS>ATOM
      1 C1          0.0567    1.7331   -0.0829 C.3       1 <0>         0.0956
      2 N1          0.1365    0.2704   -0.0965 N.pl3     1 <0>        -0.6258
      3 C2          0.0620   -0.4790    1.1602 C.3       1 <0>         0.1168
      4 C3         -1.4046   -0.7011    1.5354 C.3       1 <0>         0.1177
      5 C4         -1.4918   -1.5691    2.7998 C.3       1 <0>         0.1312
      6 N2         -0.9316   -2.8921    2.4881 N.pl3     1 <0>        -0.7386
      7 C5         -1.2934   -3.5156    1.3106 C.2       1 <0>         0.3057
      8 C6         -1.8628   -2.7992    0.2972 C.2       1 <0>        -0.0106
      9 C7         -2.2171   -3.4616   -0.8955 C.2       1 <0>         0.5484
     10 N3         -1.9904   -4.7807   -1.0091 N.2       1 <0>        -0.6142
     11 C8         -1.4436   -5.4621   -0.0254 C.2       1 <0>         0.6470
     12 N4         -1.0864   -4.8603    1.1417 N.pl3     1 <0>        -0.6420
     13 N5         -1.2294   -6.8079   -0.1794 N.pl3     1 <0>        -0.8290
     14 O1         -2.7268   -2.8411   -1.8183 O.2       1 <0>        -0.4705
     15 N6         -2.0942   -1.4145    0.4483 N.pl3     1 <0>        -0.5845
     16 C9         -3.0002   -0.7037   -0.4573 C.3       1 <0>         0.1704
     17 C10        -4.3909   -0.7012    0.1234 C.2       1 <0>        -0.2405
     18 C11        -4.8176    0.3380    0.8725 C.2       1 <0>         0.1443
     19 N7         -6.0835    0.3243    1.3917 N.am      1 <0>        -0.6403
     20 C12        -6.9069   -0.7148    1.1629 C.2       1 <0>         0.6997
     21 N8         -6.5071   -1.7638    0.4203 N.am      1 <0>        -0.6628
     22 C13        -5.2693   -1.7857   -0.1140 C.2       1 <0>         0.5354
     23 O2         -4.9087   -2.7319   -0.7906 O.2       1 <0>        -0.4543
     24 O3         -8.0277   -0.7064    1.6340 O.2       1 <0>        -0.5582
     25 C14         0.2829   -0.4068   -1.3021 C.ar      1 <0>         0.2309
     26 C15         0.4360   -1.7905   -1.3075 C.ar      1 <0>        -0.1879
     27 C16         0.5812   -2.4635   -2.4989 C.ar      1 <0>        -0.0094
     28 C17         0.5748   -1.7562   -3.7048 C.ar      1 <0>        -0.1558
     29 C18         0.4208   -0.3668   -3.6960 C.ar      1 <0>        -0.0394
     30 C19         0.2704    0.2998   -2.5016 C.ar      1 <0>        -0.2045
     31 C20         0.7306   -2.4746   -4.9838 C.2       1 <0>         0.5516
     32 O4          0.8648   -3.6831   -4.9899 O.2       1 <0>        -0.5585
     33 N9          0.7243   -1.7913   -6.1455 N.am      1 <0>        -0.6806
     34 C21         0.8790   -2.5047   -7.4157 C.3       1 <0>         0.0761
     35 C22         0.2412   -1.6872   -8.5408 C.3       1 <0>        -0.0810
     36 C23        -1.2685   -1.5937   -8.3105 C.3       1 <0>        -0.1767
     37 C24        -1.8968   -0.7885   -9.4186 C.2       1 <0>         0.4919
     38 O5         -1.2015   -0.3318  -10.3100 O.co2     1 <0>        -0.7002
     39 O6         -3.1003   -0.5937   -9.4238 O.co2     1 <0>        -0.7197
     40 C25         2.3447   -2.7011   -7.7062 C.2       1 <0>         0.4992
     41 O7          2.7149   -3.6715   -8.3448 O.co2     1 <0>        -0.7044
     42 O8          3.1602   -1.8896   -7.3026 O.co2     1 <0>        -0.7006
     43 H1          1.0545    2.1502    0.0528 H         1 <0>         0.0432
     44 H2         -0.3580    2.0832   -1.0282 H         1 <0>         0.0720
     45 H3         -0.5860    2.0543    0.7368 H         1 <0>         0.0556
     46 H4          0.5558   -1.4430    1.0382 H         1 <0>         0.0819
     47 H5          0.5576    0.0857    1.9499 H         1 <0>         0.0694
     48 H6         -1.8894    0.2591    1.7121 H         1 <0>         0.0883
     49 H7         -0.9185   -1.1070    3.6034 H         1 <0>         0.0882
     50 H8         -2.5336   -1.6731    3.1033 H         1 <0>         0.0619
     51 H9         -0.3152   -3.3213    3.1018 H         1 <0>         0.3964
     52 H10        -1.4803   -7.2474   -1.0069 H         1 <0>         0.4309
     53 H11        -0.8269   -7.3203    0.5392 H         1 <0>         0.4042
     54 H12        -2.6569    0.3233   -0.5824 H         1 <0>         0.0711
     55 H13        -3.0118   -1.2035   -1.4258 H         1 <0>         0.1543
     56 H14        -4.1628    1.1759    1.0611 H         1 <0>         0.1717
     57 H15        -6.3900    1.0707    1.9301 H         1 <0>         0.4312
     58 H16        -7.1134   -2.5050    0.2654 H         1 <0>         0.4269
     59 H17         0.4412   -2.3363   -0.3755 H         1 <0>         0.1124
     60 H18         0.7003   -3.5369   -2.5025 H         1 <0>         0.1215
     61 H19         0.4159    0.1824   -4.6259 H         1 <0>         0.1246
     62 H20         0.1467    1.3727   -2.4944 H         1 <0>         0.1201
     63 H21         0.6172   -0.8273   -6.1406 H         1 <0>         0.3887
     64 H22         0.3885   -3.4758   -7.3492 H         1 <0>         0.0760
     65 H23         0.6701   -0.6852   -8.5500 H         1 <0>         0.0583
     66 H24         0.4333   -2.1735   -9.4972 H         1 <0>         0.0700
     67 H25        -1.6974   -2.5957   -8.3012 H         1 <0>         0.0527
     68 H26        -1.4607   -1.1074   -7.3541 H         1 <0>         0.0525
     69 H27        -0.6851   -5.3826    1.8538 H         1 <0>         0.4042
@<TRIPOS>BOND
     1    1    2 1
     2    1   43 1
     3    1   44 1
     4    1   45 1
     5    2    3 1
     6    2   25 1
     7    3    4 1
     8    3   46 1
     9    3   47 1
    10    4   15 1
    11    4    5 1
    12    4   48 1
    13    5    6 1
    14    5   49 1
    15    5   50 1
    16    6    7 1
    17    6   51 1
    18    7   12 1
    19    7    8 2
    20    8    9 1
    21    8   15 1
    22    9   10 1
    23    9   14 2
    24   10   11 2
    25   11   12 1
    26   11   13 1
    27   12   69 1
    28   13   52 1
    29   13   53 1
    30   15   16 1
    31   16   54 1
    32   16   55 1
    33   16   17 1
    34   17   22 1
    35   17   18 2
    36   18   56 1
    37   18   19 1
    38   19   20 am
    39   19   57 1
    40   20   24 2
    41   20   21 am
    42   21   58 1
    43   21   22 am
    44   22   23 2
    45   25   30 ar
    46   25   26 ar
    47   26   27 ar
    48   26   59 1
    49   27   28 ar
    50   27   60 1
    51   28   29 ar
    52   28   31 1
    53   29   30 ar
    54   29   61 1
    55   30   62 1
    56   31   32 2
    57   31   33 am
    58   33   34 1
    59   33   63 1
    60   34   35 1
    61   34   40 1
    62   34   64 1
    63   35   36 1
    64   35   65 1
    65   35   66 1
    66   36   37 1
    67   36   67 1
    68   36   68 1
    69   37   38 2
    70   37   39 1
    71   40   41 2
    72   40   42 1
@<TRIPOS>MOLECULE
CHEMBL1161432__4
   69    72     0     0     0
SMALL
USER_CHARGES

@<TRIPOS>ATOM
      1 C1         -0.1471    1.9751    0.3092 C.3       1 <0>         0.1006
      2 N1          0.0829    0.5417    0.1123 N.pl3     1 <0>        -0.6161
      3 C2          0.1618   -0.3532    1.2694 C.3       1 <0>         0.1204
      4 C3         -1.2347   -0.8833    1.6004 C.3       1 <0>         0.1205
      5 C4         -1.1870   -1.6923    2.9049 C.3       1 <0>         0.1203
      6 N2         -0.7959   -0.7883    3.9960 N.pl3     1 <0>        -0.7086
      7 C5         -1.4038    0.4536    4.0921 C.2       1 <0>         0.3988
      8 C6         -2.0833    0.9770    3.0010 C.2       1 <0>        -0.0832
      9 C7         -2.6877    2.2333    3.1149 C.2       1 <0>         0.5395
     10 N3         -2.5877    2.8931    4.2895 N.am      1 <0>        -0.6487
     11 C8         -1.9124    2.3357    5.3314 C.2       1 <0>         0.6206
     12 N4         -1.3409    1.1547    5.2304 N.2       1 <0>        -0.5874
     13 N5         -1.8245    3.0225    6.5158 N.pl3     1 <0>        -0.8297
     14 O1         -3.2924    2.7231    2.1730 O.2       1 <0>        -0.5491
     15 N6         -2.1608    0.2436    1.7967 N.pl3     1 <0>        -0.5864
     16 C9         -3.1403    0.5968    0.7661 C.3       1 <0>         0.1884
     17 C10        -4.4676   -0.0358    1.0968 C.2       1 <0>        -0.2608
     18 C11        -5.4107    0.6624    1.7647 C.2       1 <0>         0.1667
     19 N7         -6.6106    0.0729    2.0564 N.am      1 <0>        -0.6395
     20 C12        -6.8594   -1.1958    1.6839 C.2       1 <0>         0.6987
     21 N8         -5.9370   -1.9147    1.0176 N.am      1 <0>        -0.6600
     22 C13        -4.7444   -1.3681    0.7060 C.2       1 <0>         0.5497
     23 O2         -3.9114   -2.0160    0.0983 O.2       1 <0>        -0.4935
     24 O3         -7.9324   -1.7001    1.9534 O.2       1 <0>        -0.5527
     25 C14         0.2261    0.0307   -1.1729 C.ar      1 <0>         0.2269
     26 C15         0.4389   -1.3325   -1.3587 C.ar      1 <0>        -0.2069
     27 C16         0.5811   -1.8413   -2.6293 C.ar      1 <0>        -0.0156
     28 C17         0.5117   -0.9878   -3.7343 C.ar      1 <0>        -0.1678
     29 C18         0.2979    0.3806   -3.5444 C.ar      1 <0>        -0.0358
     30 C19         0.1509    0.8825   -2.2716 C.ar      1 <0>        -0.2030
     31 C20         0.6642   -1.5299   -5.0978 C.2       1 <0>         0.5503
     32 O4          0.8505   -2.7203   -5.2614 O.2       1 <0>        -0.5614
     33 N9          0.5970   -0.7057   -6.1620 N.am      1 <0>        -0.6799
     34 C21         0.7484   -1.2441   -7.5161 C.3       1 <0>         0.0751
     35 C22         1.2501   -0.1411   -8.4503 C.3       1 <0>        -0.0820
     36 C23         2.6562    0.2869   -8.0253 C.3       1 <0>        -0.1765
     37 C24         3.1502    1.3733   -8.9455 C.2       1 <0>         0.4912
     38 O5          2.4432    1.7686   -9.8567 O.co2     1 <0>        -0.6980
     39 O6          4.2569    1.8569   -8.7786 O.co2     1 <0>        -0.7206
     40 C25        -0.5831   -1.7510   -8.0069 C.2       1 <0>         0.4983
     41 O7         -1.6148   -1.2323   -7.6157 O.co2     1 <0>        -0.6986
     42 O8         -0.6288   -2.6799   -8.7953 O.co2     1 <0>        -0.7037
     43 H1          0.8104    2.4863    0.4092 H         1 <0>         0.0355
     44 H2         -0.6861    2.3778   -0.5484 H         1 <0>         0.0665
     45 H3         -0.7366    2.1277    1.2132 H         1 <0>         0.0680
     46 H4          0.8223   -1.1889    1.0380 H         1 <0>         0.0806
     47 H5          0.5551    0.1942    2.1260 H         1 <0>         0.0703
     48 H6         -1.5910   -1.5154    0.7870 H         1 <0>         0.1128
     49 H7         -2.1707   -2.1136    3.1119 H         1 <0>         0.0661
     50 H8         -0.4552   -2.4948    2.8128 H         1 <0>         0.0945
     51 H9         -0.1222   -1.0573    4.6400 H         1 <0>         0.4052
     52 H10        -2.2408    3.8943    6.6030 H         1 <0>         0.4117
     53 H11        -1.3460    2.6363    7.2660 H         1 <0>         0.4250
     54 H12        -3.2536    1.6802    0.7285 H         1 <0>         0.1243
     55 H13        -2.7959    0.2336   -0.2022 H         1 <0>         0.0863
     56 H14        -5.2188    1.6811    2.0676 H         1 <0>         0.1822
     57 H15        -7.2881    0.5743    2.5365 H         1 <0>         0.4323
     58 H16        -6.1326   -2.8283    0.7568 H         1 <0>         0.4295
     59 H17         0.4928   -1.9914   -0.5046 H         1 <0>         0.1190
     60 H18         0.7465   -2.8989   -2.7728 H         1 <0>         0.1305
     61 H19         0.2442    1.0426   -4.3961 H         1 <0>         0.1262
     62 H20        -0.0191    1.9388   -2.1245 H         1 <0>         0.1223
     63 H21         0.4484    0.2439   -6.0315 H         1 <0>         0.3898
     64 H22         1.4669   -2.0637   -7.5030 H         1 <0>         0.0762
     65 H23         1.2781   -0.5163   -9.4733 H         1 <0>         0.0710
     66 H24         0.5776    0.7150   -8.3957 H         1 <0>         0.0593
     67 H25         2.6281    0.6621   -7.0023 H         1 <0>         0.0516
     68 H26         3.3286   -0.5692   -8.0799 H         1 <0>         0.0522
     69 H27        -2.9984    3.7660    4.3906 H         1 <0>         0.4106
@<TRIPOS>BOND
     1    1    2 1
     2    1   43 1
     3    1   44 1
     4    1   45 1
     5    2    3 1
     6    2   25 1
     7    3    4 1
     8    3   46 1
     9    3   47 1
    10    4   15 1
    11    4    5 1
    12    4   48 1
    13    5    6 1
    14    5   49 1
    15    5   50 1
    16    6    7 1
    17    6   51 1
    18    7   12 1
    19    7    8 2
    20    8    9 1
    21    8   15 1
    22    9   10 am
    23    9   14 2
    24   10   11 1
    25   10   69 1
    26   11   12 2
    27   11   13 1
    28   13   52 1
    29   13   53 1
    30   15   16 1
    31   16   54 1
    32   16   55 1
    33   16   17 1
    34   17   22 1
    35   17   18 2
    36   18   56 1
    37   18   19 1
    38   19   20 am
    39   19   57 1
    40   20   24 2
    41   20   21 am
    42   21   58 1
    43   21   22 am
    44   22   23 2
    45   25   30 ar
    46   25   26 ar
    47   26   27 ar
    48   26   59 1
    49   27   28 ar
    50   27   60 1
    51   28   29 ar
    52   28   31 1
    53   29   30 ar
    54   29   61 1
    55   30   62 1
    56   31   32 2
    57   31   33 am
    58   33   34 1
    59   33   63 1
    60   34   35 1
    61   34   40 1
    62   34   64 1
    63   35   36 1
    64   35   65 1
    65   35   66 1
    66   36   37 1
    67   36   67 1
    68   36   68 1
    69   37   38 2
    70   37   39 1
    71   40   41 2
    72   40   42 1
@<TRIPOS>MOLECULE
CHEMBL1161432__5
   69    72     0     0     0
SMALL
USER_CHARGES

@<TRIPOS>ATOM
      1 C1         -0.1484    1.9781    0.3109 C.3       1 <0>         0.0995
      2 N1          0.0834    0.5450    0.1137 N.pl3     1 <0>        -0.6170
      3 C2          0.1628   -0.3502    1.2706 C.3       1 <0>         0.1224
      4 C3         -1.2333   -0.8821    1.6007 C.3       1 <0>         0.1129
      5 C4         -1.1866   -1.6890    2.9070 C.3       1 <0>         0.1269
      6 N2         -0.8148   -0.7759    3.9976 N.pl3     1 <0>        -0.7305
      7 C5         -1.4281    0.4582    4.0806 C.2       1 <0>         0.3289
      8 C6         -2.0907    0.9732    3.0036 C.2       1 <0>        -0.0377
      9 C7         -2.7030    2.2378    3.1160 C.2       1 <0>         0.5429
     10 N3         -2.6244    2.9071    4.2779 N.2       1 <0>        -0.6300
     11 C8         -1.9857    2.4006    5.3106 C.2       1 <0>         0.6529
     12 N4         -1.3807    1.1835    5.2431 N.pl3     1 <0>        -0.6330
     13 N5         -1.9280    3.1147    6.4800 N.pl3     1 <0>        -0.8268
     14 O1         -3.3001    2.7214    2.1641 O.2       1 <0>        -0.5275
     15 N6         -2.1614    0.2433    1.7969 N.pl3     1 <0>        -0.5837
     16 C9         -3.1372    0.5981    0.7633 C.3       1 <0>         0.1870
     17 C10        -4.4654   -0.0357    1.0877 C.2       1 <0>        -0.2667
     18 C11        -5.4113    0.6607    1.7535 C.2       1 <0>         0.1733
     19 N7         -6.6120    0.0702    2.0396 N.am      1 <0>        -0.6387
     20 C12        -6.8589   -1.1979    1.6637 C.2       1 <0>         0.6983
     21 N8         -5.9337   -1.9151    0.9994 N.am      1 <0>        -0.6603
     22 C13        -4.7401   -1.3674    0.6934 C.2       1 <0>         0.5502
     23 O2         -3.9046   -2.0137    0.0875 O.2       1 <0>        -0.4958
     24 O3         -7.9327   -1.7032    1.9282 O.2       1 <0>        -0.5530
     25 C14         0.2280    0.0346   -1.1716 C.ar      1 <0>         0.2255
     26 C15         0.4426   -1.3284   -1.3576 C.ar      1 <0>        -0.2071
     27 C16         0.5861   -1.8366   -2.6283 C.ar      1 <0>        -0.0163
     28 C17         0.5163   -0.9828   -3.7330 C.ar      1 <0>        -0.1653
     29 C18         0.3007    0.3853   -3.5429 C.ar      1 <0>        -0.0360
     30 C19         0.1523    0.8866   -2.2700 C.ar      1 <0>        -0.2018
     31 C20         0.6702   -1.5243   -5.0966 C.2       1 <0>         0.5549
     32 O4          0.8580   -2.7145   -5.2605 O.2       1 <0>        -0.5640
     33 N9          0.6026   -0.6999   -6.1607 N.am      1 <0>        -0.6790
     34 C21         0.7555   -1.2377   -7.5148 C.3       1 <0>         0.0741
     35 C22         1.2563   -0.1339   -8.4484 C.3       1 <0>        -0.0809
     36 C23         2.6616    0.2957   -8.0225 C.3       1 <0>        -0.1768
     37 C24         3.1549    1.3829   -8.9421 C.2       1 <0>         0.4911
     38 O5          2.4479    1.7776   -9.8536 O.co2     1 <0>        -0.6977
     39 O6          4.2609    1.8679   -8.7745 O.co2     1 <0>        -0.7209
     40 C25        -0.5752   -1.7462   -8.0066 C.2       1 <0>         0.4968
     41 O7         -1.5905   -1.5057   -7.3759 O.co2     1 <0>        -0.6969
     42 O8         -0.6364   -2.3980   -9.0351 O.co2     1 <0>        -0.7037
     43 H1          0.8085    2.4904    0.4116 H         1 <0>         0.0361
     44 H2         -0.6874    2.3804   -0.5469 H         1 <0>         0.0681
     45 H3         -0.7386    2.1297    1.2146 H         1 <0>         0.0689
     46 H4          0.8244   -1.1850    1.0394 H         1 <0>         0.0804
     47 H5          0.5549    0.1975    2.1276 H         1 <0>         0.0682
     48 H6         -1.5882   -1.5153    0.7876 H         1 <0>         0.1146
     49 H7         -2.1669   -2.1213    3.1075 H         1 <0>         0.0672
     50 H8         -0.4443   -2.4827    2.8227 H         1 <0>         0.0956
     51 H9         -0.1471   -1.0374    4.6509 H         1 <0>         0.3988
     52 H10        -2.3553    3.9834    6.5394 H         1 <0>         0.4298
     53 H11        -1.4597    2.7510    7.2477 H         1 <0>         0.4085
     54 H12        -3.2507    1.6815    0.7274 H         1 <0>         0.1304
     55 H13        -2.7890    0.2369   -0.2044 H         1 <0>         0.0873
     56 H14        -5.2210    1.6790    2.0591 H         1 <0>         0.1867
     57 H15        -7.2915    0.5703    2.5181 H         1 <0>         0.4335
     58 H16        -6.1279   -2.8283    0.7361 H         1 <0>         0.4290
     59 H17         0.4968   -1.9874   -0.5037 H         1 <0>         0.1179
     60 H18         0.7528   -2.8939   -2.7720 H         1 <0>         0.1300
     61 H19         0.2467    1.0475   -4.3944 H         1 <0>         0.1261
     62 H20        -0.0189    1.9427   -2.1227 H         1 <0>         0.1230
     63 H21         0.4528    0.2494   -6.0299 H         1 <0>         0.3885
     64 H22         1.4749   -2.0565   -7.5015 H         1 <0>         0.0765
     65 H23         1.2854   -0.5088   -9.4715 H         1 <0>         0.0756
     66 H24         0.5828    0.7214   -8.3939 H         1 <0>         0.0558
     67 H25         2.6325    0.6706   -6.9994 H         1 <0>         0.0511
     68 H26         3.3351   -0.5596   -8.0770 H         1 <0>         0.0519
     69 H27        -0.9162    0.8291    6.0174 H         1 <0>         0.4098
@<TRIPOS>BOND
     1    1    2 1
     2    1   43 1
     3    1   44 1
     4    1   45 1
     5    2    3 1
     6    2   25 1
     7    3    4 1
     8    3   46 1
     9    3   47 1
    10    4   15 1
    11    4    5 1
    12    4   48 1
    13    5    6 1
    14    5   49 1
    15    5   50 1
    16    6    7 1
    17    6   51 1
    18    7   12 1
    19    7    8 2
    20    8    9 1
    21    8   15 1
    22    9   10 1
    23    9   14 2
    24   10   11 2
    25   11   12 1
    26   11   13 1
    27   12   69 1
    28   13   52 1
    29   13   53 1
    30   15   16 1
    31   16   54 1
    32   16   55 1
    33   16   17 1
    34   17   22 1
    35   17   18 2
    36   18   56 1
    37   18   19 1
    38   19   20 am
    39   19   57 1
    40   20   24 2
    41   20   21 am
    42   21   58 1
    43   21   22 am
    44   22   23 2
    45   25   30 ar
    46   25   26 ar
    47   26   27 ar
    48   26   59 1
    49   27   28 ar
    50   27   60 1
    51   28   29 ar
    52   28   31 1
    53   29   30 ar
    54   29   61 1
    55   30   62 1
    56   31   32 2
    57   31   33 am
    58   33   34 1
    59   33   63 1
    60   34   35 1
    61   34   40 1
    62   34   64 1
    63   35   36 1
    64   35   65 1
    65   35   66 1
    66   36   37 1
    67   36   67 1
    68   36   68 1
    69   37   38 2
    70   37   39 1
    71   40   41 2
    72   40   42 1
@<TRIPOS>MOLECULE
CHEMBL1161432__6
   69    72     0     0     0
SMALL
USER_CHARGES

@<TRIPOS>ATOM
      1 C1         -0.1471    1.9751    0.3092 C.3       1 <0>         0.1009
      2 N1          0.0829    0.5417    0.1123 N.pl3     1 <0>        -0.6163
      3 C2          0.1618   -0.3532    1.2694 C.3       1 <0>         0.1204
      4 C3         -1.2347   -0.8833    1.6004 C.3       1 <0>         0.1208
      5 C4         -1.1870   -1.6923    2.9049 C.3       1 <0>         0.1202
      6 N2         -0.7959   -0.7883    3.9960 N.pl3     1 <0>        -0.7086
      7 C5         -1.4038    0.4536    4.0921 C.2       1 <0>         0.3987
      8 C6         -2.0833    0.9770    3.0010 C.2       1 <0>        -0.0833
      9 C7         -2.6877    2.2333    3.1149 C.2       1 <0>         0.5394
     10 N3         -2.5877    2.8931    4.2895 N.am      1 <0>        -0.6488
     11 C8         -1.9124    2.3357    5.3314 C.2       1 <0>         0.6206
     12 N4         -1.3409    1.1547    5.2304 N.2       1 <0>        -0.5875
     13 N5         -1.8245    3.0225    6.5158 N.pl3     1 <0>        -0.8297
     14 O1         -3.2924    2.7231    2.1730 O.2       1 <0>        -0.5487
     15 N6         -2.1608    0.2436    1.7967 N.pl3     1 <0>        -0.5864
     16 C9         -3.1403    0.5968    0.7661 C.3       1 <0>         0.1885
     17 C10        -4.4676   -0.0358    1.0968 C.2       1 <0>        -0.2615
     18 C11        -5.4107    0.6624    1.7647 C.2       1 <0>         0.1674
     19 N7         -6.6106    0.0729    2.0564 N.am      1 <0>        -0.6394
     20 C12        -6.8594   -1.1958    1.6839 C.2       1 <0>         0.6987
     21 N8         -5.9370   -1.9147    1.0176 N.am      1 <0>        -0.6601
     22 C13        -4.7444   -1.3681    0.7060 C.2       1 <0>         0.5505
     23 O2         -3.9114   -2.0160    0.0983 O.2       1 <0>        -0.4949
     24 O3         -7.9324   -1.7001    1.9534 O.2       1 <0>        -0.5524
     25 C14         0.2261    0.0307   -1.1729 C.ar      1 <0>         0.2259
     26 C15         0.4389   -1.3325   -1.3587 C.ar      1 <0>        -0.2066
     27 C16         0.5811   -1.8413   -2.6293 C.ar      1 <0>        -0.0159
     28 C17         0.5117   -0.9878   -3.7343 C.ar      1 <0>        -0.1652
     29 C18         0.2979    0.3806   -3.5444 C.ar      1 <0>        -0.0368
     30 C19         0.1509    0.8825   -2.2716 C.ar      1 <0>        -0.2031
     31 C20         0.6642   -1.5299   -5.0978 C.2       1 <0>         0.5573
     32 O4          0.8505   -2.7203   -5.2614 O.2       1 <0>        -0.5630
     33 N9          0.5970   -0.7057   -6.1620 N.am      1 <0>        -0.6804
     34 C21         0.7484   -1.2441   -7.5161 C.3       1 <0>         0.0739
     35 C22         0.0458   -0.3208   -8.5135 C.3       1 <0>        -0.0799
     36 C23        -1.4598   -0.3275   -8.2413 C.3       1 <0>        -0.1773
     37 C24        -2.1519    0.5818   -9.2238 C.2       1 <0>         0.4910
     38 O5         -1.5012    1.1798  -10.0638 O.co2     1 <0>        -0.6980
     39 O6         -3.3625    0.7196   -9.1786 O.co2     1 <0>        -0.7208
     40 C25         2.2129   -1.3337   -7.8602 C.2       1 <0>         0.4958
     41 O7          3.0523   -0.9806   -7.0495 O.co2     1 <0>        -0.6971
     42 O8          2.5583   -1.7593   -8.9492 O.co2     1 <0>        -0.7026
     43 H1          0.8104    2.4863    0.4092 H         1 <0>         0.0350
     44 H2         -0.6861    2.3778   -0.5484 H         1 <0>         0.0665
     45 H3         -0.7366    2.1277    1.2132 H         1 <0>         0.0679
     46 H4          0.8223   -1.1889    1.0380 H         1 <0>         0.0806
     47 H5          0.5551    0.1942    2.1260 H         1 <0>         0.0701
     48 H6         -1.5910   -1.5154    0.7870 H         1 <0>         0.1127
     49 H7         -2.1707   -2.1136    3.1119 H         1 <0>         0.0660
     50 H8         -0.4552   -2.4948    2.8128 H         1 <0>         0.0945
     51 H9         -0.1222   -1.0573    4.6400 H         1 <0>         0.4052
     52 H10        -2.2408    3.8943    6.6030 H         1 <0>         0.4117
     53 H11        -1.3460    2.6363    7.2660 H         1 <0>         0.4250
     54 H12        -3.2536    1.6802    0.7285 H         1 <0>         0.1243
     55 H13        -2.7959    0.2336   -0.2022 H         1 <0>         0.0862
     56 H14        -5.2188    1.6811    2.0676 H         1 <0>         0.1823
     57 H15        -7.2881    0.5743    2.5365 H         1 <0>         0.4325
     58 H16        -6.1326   -2.8283    0.7568 H         1 <0>         0.4293
     59 H17         0.4928   -1.9914   -0.5046 H         1 <0>         0.1187
     60 H18         0.7465   -2.8989   -2.7728 H         1 <0>         0.1302
     61 H19         0.2442    1.0426   -4.3961 H         1 <0>         0.1252
     62 H20        -0.0191    1.9388   -2.1245 H         1 <0>         0.1218
     63 H21         0.4484    0.2439   -6.0315 H         1 <0>         0.3876
     64 H22         0.3025   -2.2375   -7.5641 H         1 <0>         0.0764
     65 H23         0.4305    0.6931   -8.4034 H         1 <0>         0.0541
     66 H24         0.2331   -0.6723   -9.5282 H         1 <0>         0.0776
     67 H25        -1.8445   -1.3414   -8.3515 H         1 <0>         0.0518
     68 H26        -1.6471    0.0240   -7.2267 H         1 <0>         0.0508
     69 H27        -2.9984    3.7660    4.3906 H         1 <0>         0.4106
@<TRIPOS>BOND
     1    1    2 1
     2    1   43 1
     3    1   44 1
     4    1   45 1
     5    2    3 1
     6    2   25 1
     7    3    4 1
     8    3   46 1
     9    3   47 1
    10    4   15 1
    11    4    5 1
    12    4   48 1
    13    5    6 1
    14    5   49 1
    15    5   50 1
    16    6    7 1
    17    6   51 1
    18    7   12 1
    19    7    8 2
    20    8    9 1
    21    8   15 1
    22    9   10 am
    23    9   14 2
    24   10   11 1
    25   10   69 1
    26   11   12 2
    27   11   13 1
    28   13   52 1
    29   13   53 1
    30   15   16 1
    31   16   54 1
    32   16   55 1
    33   16   17 1
    34   17   22 1
    35   17   18 2
    36   18   56 1
    37   18   19 1
    38   19   20 am
    39   19   57 1
    40   20   24 2
    41   20   21 am
    42   21   58 1
    43   21   22 am
    44   22   23 2
    45   25   30 ar
    46   25   26 ar
    47   26   27 ar
    48   26   59 1
    49   27   28 ar
    50   27   60 1
    51   28   29 ar
    52   28   31 1
    53   29   30 ar
    54   29   61 1
    55   30   62 1
    56   31   32 2
    57   31   33 am
    58   33   34 1
    59   33   63 1
    60   34   35 1
    61   34   40 1
    62   34   64 1
    63   35   36 1
    64   35   65 1
    65   35   66 1
    66   36   37 1
    67   36   67 1
    68   36   68 1
    69   37   38 2
    70   37   39 1
    71   40   41 2
    72   40   42 1
@<TRIPOS>MOLECULE
CHEMBL1161432__7
   69    72     0     0     0
SMALL
USER_CHARGES

@<TRIPOS>ATOM
      1 C1         -0.1484    1.9781    0.3109 C.3       1 <0>         0.0994
      2 N1          0.0834    0.5450    0.1137 N.pl3     1 <0>        -0.6168
      3 C2          0.1628   -0.3502    1.2706 C.3       1 <0>         0.1221
      4 C3         -1.2333   -0.8821    1.6007 C.3       1 <0>         0.1132
      5 C4         -1.1866   -1.6890    2.9070 C.3       1 <0>         0.1269
      6 N2         -0.8148   -0.7759    3.9976 N.pl3     1 <0>        -0.7305
      7 C5         -1.4281    0.4582    4.0806 C.2       1 <0>         0.3291
      8 C6         -2.0907    0.9732    3.0036 C.2       1 <0>        -0.0379
      9 C7         -2.7030    2.2378    3.1160 C.2       1 <0>         0.5428
     10 N3         -2.6244    2.9071    4.2779 N.2       1 <0>        -0.6299
     11 C8         -1.9857    2.4006    5.3106 C.2       1 <0>         0.6529
     12 N4         -1.3807    1.1835    5.2431 N.pl3     1 <0>        -0.6331
     13 N5         -1.9280    3.1147    6.4800 N.pl3     1 <0>        -0.8268
     14 O1         -3.3001    2.7214    2.1641 O.2       1 <0>        -0.5271
     15 N6         -2.1614    0.2433    1.7969 N.pl3     1 <0>        -0.5838
     16 C9         -3.1372    0.5981    0.7633 C.3       1 <0>         0.1871
     17 C10        -4.4654   -0.0357    1.0877 C.2       1 <0>        -0.2677
     18 C11        -5.4113    0.6607    1.7535 C.2       1 <0>         0.1743
     19 N7         -6.6120    0.0702    2.0396 N.am      1 <0>        -0.6385
     20 C12        -6.8589   -1.1979    1.6637 C.2       1 <0>         0.6983
     21 N8         -5.9337   -1.9151    0.9994 N.am      1 <0>        -0.6603
     22 C13        -4.7401   -1.3674    0.6934 C.2       1 <0>         0.5511
     23 O2         -3.9046   -2.0137    0.0875 O.2       1 <0>        -0.4976
     24 O3         -7.9327   -1.7032    1.9282 O.2       1 <0>        -0.5525
     25 C14         0.2280    0.0346   -1.1716 C.ar      1 <0>         0.2262
     26 C15         0.4426   -1.3284   -1.3576 C.ar      1 <0>        -0.2072
     27 C16         0.5861   -1.8366   -2.6283 C.ar      1 <0>        -0.0160
     28 C17         0.5163   -0.9828   -3.7330 C.ar      1 <0>        -0.1672
     29 C18         0.3007    0.3853   -3.5429 C.ar      1 <0>        -0.0355
     30 C19         0.1523    0.8866   -2.2700 C.ar      1 <0>        -0.2018
     31 C20         0.6702   -1.5243   -5.0966 C.2       1 <0>         0.5502
     32 O4          0.8580   -2.7145   -5.2605 O.2       1 <0>        -0.5618
     33 N9          0.6026   -0.6999   -6.1607 N.am      1 <0>        -0.6796
     34 C21         0.7555   -1.2377   -7.5148 C.3       1 <0>         0.0750
     35 C22         0.0523   -0.3151   -8.5124 C.3       1 <0>        -0.0819
     36 C23        -1.4535   -0.3236   -8.2410 C.3       1 <0>        -0.1767
     37 C24        -2.1461    0.5851   -9.2236 C.2       1 <0>         0.4912
     38 O5         -1.4957    1.1841  -10.0631 O.co2     1 <0>        -0.6985
     39 O6         -3.3569    0.7214   -9.1791 O.co2     1 <0>        -0.7199
     40 C25         2.2202   -1.3255   -7.8581 C.2       1 <0>         0.4987
     41 O7          2.6164   -2.1879   -8.6234 O.co2     1 <0>        -0.7035
     42 O8          3.0091   -0.5340   -7.3705 O.co2     1 <0>        -0.6995
     43 H1          0.8085    2.4904    0.4116 H         1 <0>         0.0360
     44 H2         -0.6874    2.3804   -0.5469 H         1 <0>         0.0684
     45 H3         -0.7386    2.1297    1.2146 H         1 <0>         0.0691
     46 H4          0.8244   -1.1850    1.0394 H         1 <0>         0.0805
     47 H5          0.5549    0.1975    2.1276 H         1 <0>         0.0683
     48 H6         -1.5882   -1.5153    0.7876 H         1 <0>         0.1144
     49 H7         -2.1669   -2.1213    3.1075 H         1 <0>         0.0672
     50 H8         -0.4443   -2.4827    2.8227 H         1 <0>         0.0955
     51 H9         -0.1471   -1.0374    4.6509 H         1 <0>         0.3988
     52 H10        -2.3553    3.9834    6.5394 H         1 <0>         0.4298
     53 H11        -1.4597    2.7510    7.2477 H         1 <0>         0.4085
     54 H12        -3.2507    1.6815    0.7274 H         1 <0>         0.1305
     55 H13        -2.7890    0.2369   -0.2044 H         1 <0>         0.0870
     56 H14        -5.2210    1.6790    2.0591 H         1 <0>         0.1869
     57 H15        -7.2915    0.5703    2.5181 H         1 <0>         0.4337
     58 H16        -6.1279   -2.8283    0.7361 H         1 <0>         0.4289
     59 H17         0.4968   -1.9874   -0.5037 H         1 <0>         0.1182
     60 H18         0.7528   -2.8939   -2.7720 H         1 <0>         0.1303
     61 H19         0.2467    1.0475   -4.3944 H         1 <0>         0.1267
     62 H20        -0.0189    1.9427   -2.1227 H         1 <0>         0.1233
     63 H21         0.4528    0.2494   -6.0299 H         1 <0>         0.3900
     64 H22         0.3107   -2.2317   -7.5634 H         1 <0>         0.0763
     65 H23         0.4356    0.6993   -8.4017 H         1 <0>         0.0594
     66 H24         0.2406   -0.6660   -9.5270 H         1 <0>         0.0710
     67 H25        -1.8368   -1.3380   -8.3517 H         1 <0>         0.0522
     68 H26        -1.6418    0.0273   -7.2264 H         1 <0>         0.0519
     69 H27        -0.9162    0.8291    6.0174 H         1 <0>         0.4098
@<TRIPOS>BOND
     1    1    2 1
     2    1   43 1
     3    1   44 1
     4    1   45 1
     5    2    3 1
     6    2   25 1
     7    3    4 1
     8    3   46 1
     9    3   47 1
    10    4   15 1
    11    4    5 1
    12    4   48 1
    13    5    6 1
    14    5   49 1
    15    5   50 1
    16    6    7 1
    17    6   51 1
    18    7   12 1
    19    7    8 2
    20    8    9 1
    21    8   15 1
    22    9   10 1
    23    9   14 2
    24   10   11 2
    25   11   12 1
    26   11   13 1
    27   12   69 1
    28   13   52 1
    29   13   53 1
    30   15   16 1
    31   16   54 1
    32   16   55 1
    33   16   17 1
    34   17   22 1
    35   17   18 2
    36   18   56 1
    37   18   19 1
    38   19   20 am
    39   19   57 1
    40   20   24 2
    41   20   21 am
    42   21   58 1
    43   21   22 am
    44   22   23 2
    45   25   30 ar
    46   25   26 ar
    47   26   27 ar
    48   26   59 1
    49   27   28 ar
    50   27   60 1
    51   28   29 ar
    52   28   31 1
    53   29   30 ar
    54   29   61 1
    55   30   62 1
    56   31   32 2
    57   31   33 am
    58   33   34 1
    59   33   63 1
    60   34   35 1
    61   34   40 1
    62   34   64 1
    63   35   36 1
    64   35   65 1
    65   35   66 1
    66   36   37 1
    67   36   67 1
    68   36   68 1
    69   37   38 2
    70   37   39 1
    71   40   41 2
    72   40   42 1
@<TRIPOS>MOLECULE
CHEMBL162498
   33    35     0     0     0
SMALL
USER_CHARGES

@<TRIPOS>ATOM
      1 C1         -0.0127    1.0858    0.0080 C.3       1 <0>        -0.1258
      2 C2         -0.7416    1.5850   -1.2129 C.ar      1 <0>        -0.0430
      3 C3         -0.0399    1.8248   -2.3824 C.ar      1 <0>        -0.0828
      4 C4         -0.6822    2.2819   -3.5141 C.ar      1 <0>        -0.0743
      5 C5         -2.0583    2.5085   -3.4889 C.ar      1 <0>         0.1472
      6 C6         -2.7797    2.2656   -2.2983 C.ar      1 <0>        -0.1558
      7 C7         -2.1125    1.7959   -1.1589 C.ar      1 <0>        -0.0906
      8 S1         -3.0035    1.4830    0.3287 S.3       1 <0>         0.0542
      9 C8         -2.9513    3.0202    1.1882 C.ar      1 <0>        -0.1429
     10 C9         -3.5600    3.1546    2.4347 C.ar      1 <0>        -0.0593
     11 C10        -3.4914    4.3826    3.0711 C.ar      1 <0>        -0.1489
     12 C11        -2.8268    5.4269    2.4545 C.ar      1 <0>         0.0858
     13 N1         -2.2609    5.2676    1.2741 N.ar      1 <0>        -0.4668
     14 C12        -2.2977    4.1149    0.6361 C.ar      1 <0>         0.0914
     15 C13        -4.2247    2.5141   -2.3043 C.2       1 <0>         0.5383
     16 N2         -4.7758    2.9623   -3.4562 N.am      1 <0>        -0.6519
     17 C14        -4.0064    3.1693   -4.5568 C.2       1 <0>         0.3984
     18 N3         -2.7255    2.9584   -4.5817 N.2       1 <0>        -0.5207
     19 C15        -4.6736    3.6687   -5.8124 C.3       1 <0>        -0.1130
     20 O1         -4.9029    2.3241   -1.3110 O.2       1 <0>        -0.4743
     21 H1          0.0021   -0.0041    0.0020 H         1 <0>         0.0852
     22 H2          1.0099    1.4631    0.0003 H         1 <0>         0.0756
     23 H3         -0.5229    1.4373    0.9048 H         1 <0>         0.0795
     24 H4          1.0258    1.6517   -2.4086 H         1 <0>         0.1447
     25 H5         -0.1204    2.4643   -4.4183 H         1 <0>         0.1483
     26 H6         -4.0728    2.3218    2.8928 H         1 <0>         0.1402
     27 H7         -3.9520    4.5232    4.0378 H         1 <0>         0.1422
     28 H8         -2.7708    6.3867    2.9465 H         1 <0>         0.1591
     29 H9         -1.8187    4.0216   -0.3274 H         1 <0>         0.1454
     30 H10        -4.6694    4.7587   -5.8173 H         1 <0>         0.1004
     31 H11        -4.1320    3.2993   -6.6832 H         1 <0>         0.1057
     32 H12        -5.7021    3.3092   -5.8449 H         1 <0>         0.0881
     33 H13        -5.7291    3.1371   -3.4966 H         1 <0>         0.4205
@<TRIPOS>BOND
     1    1   21 1
     2    1   22 1
     3    1   23 1
     4    1    2 1
     5    2    7 ar
     6    2    3 ar
     7    3   24 1
     8    3    4 ar
     9    4   25 1
    10    4    5 ar
    11    5    6 ar
    12    5   18 1
    13    6   15 1
    14    6    7 ar
    15    7    8 1
    16    8    9 1
    17    9   14 ar
    18    9   10 ar
    19   10   11 ar
    20   10   26 1
    21   11   12 ar
    22   11   27 1
    23   12   13 ar
    24   12   28 1
    25   13   14 ar
    26   14   29 1
    27   15   20 2
    28   15   16 am
    29   16   17 1
    30   16   33 1
    31   17   18 2
    32   17   19 1
    33   19   30 1
    34   19   31 1
    35   19   32 1
@<TRIPOS>MOLECULE
CHEMBL353191
   52    56     0     0     0
SMALL
USER_CHARGES

@<TRIPOS>ATOM
      1 C1          1.6691   -4.5299   -1.3822 C.ar      1 <0>        -0.0595
      2 C2          1.1821   -3.3007   -0.9788 C.ar      1 <0>        -0.1374
      3 C3          2.0588   -2.2919   -0.6257 C.ar      1 <0>        -0.0224
      4 C4          3.4225   -2.5125   -0.6756 C.ar      1 <0>        -0.6600
      5 C5          3.9095   -3.7420   -1.0782 C.ar      1 <0>        -0.0229
      6 C6          3.0328   -4.7503   -1.4326 C.ar      1 <0>        -0.1379
      7 S1          4.5400   -1.2263   -0.2267 S.o2      1 <0>         2.5769
      8 O1          5.7693   -1.5097   -0.8807 O.2       1 <0>        -0.9285
      9 O2          3.8440   -0.0011   -0.4105 O.2       1 <0>        -0.9276
     10 C7          4.8426   -1.3790    1.5024 C.ar      1 <0>        -0.6300
     11 C8          4.0310   -0.7173    2.4058 C.ar      1 <0>        -0.0264
     12 C9          4.2654   -0.8343    3.7616 C.ar      1 <0>        -0.0862
     13 C10         5.3180   -1.6185    4.2179 C.ar      1 <0>        -0.0750
     14 C11         6.1312   -2.2824    3.3071 C.ar      1 <0>        -0.0919
     15 C12         5.8876   -2.1649    1.9530 C.ar      1 <0>        -0.0270
     16 S2          5.6213   -1.7703    5.9469 S.3       1 <0>        -0.1271
     17 C13         4.7619   -3.2990    6.4107 C.3       1 <0>        -0.0349
     18 C14         3.2576   -3.1043    6.2339 C.3       1 <0>        -0.1208
     19 C15         2.5391   -4.3204    6.8302 C.3       1 <0>        -0.1207
     20 C16         2.6879   -4.2699    8.3493 C.3       1 <0>        -0.0913
     21 C17         4.1335   -4.0887    8.7345 C.ar      1 <0>        -0.0105
     22 C18         5.0884   -3.6378    7.8424 C.ar      1 <0>        -0.0257
     23 C19         6.4017   -3.4836    8.2507 C.ar      1 <0>        -0.0672
     24 C20         6.7736   -3.7839    9.5603 C.ar      1 <0>         0.0579
     25 C21         5.7998   -4.2450   10.4614 C.ar      1 <0>         0.0943
     26 C22         4.4904   -4.3924   10.0394 C.ar      1 <0>        -0.0909
     27 N1          6.4564   -4.4573   11.6627 N.pl3     1 <0>        -0.5708
     28 H1          6.0584   -4.7784   12.4869 H         1 <0>         0.4602
     29 C23         7.7681   -4.1303   11.4705 C.cat     1 <0>         0.6582
     30 N2          7.9521   -3.7350   10.2356 N.pl3     1 <0>        -0.5337
     31 N3          8.7524   -4.2049   12.4335 N.pl3     1 <0>        -0.7929
     32 H2          0.9841   -5.3194   -1.6538 H         1 <0>         0.1345
     33 H3          0.1166   -3.1283   -0.9398 H         1 <0>         0.1368
     34 H4          1.6783   -1.3313   -0.3113 H         1 <0>         0.1432
     35 H5          4.9750   -3.9142   -1.1175 H         1 <0>         0.1426
     36 H6          3.4133   -5.7107   -1.7475 H         1 <0>         0.1363
     37 H7          3.2131   -0.1080    2.0505 H         1 <0>         0.1519
     38 H8          3.6316   -0.3167    4.4665 H         1 <0>         0.1457
     39 H9          6.9502   -2.8927    3.6582 H         1 <0>         0.1425
     40 H10         6.5166   -2.6837    1.2448 H         1 <0>         0.1510
     41 H11         5.0971   -4.1100    5.7641 H         1 <0>         0.1133
     42 H12         2.9410   -2.1998    6.7532 H         1 <0>         0.0874
     43 H13         3.0203   -3.0214    5.1733 H         1 <0>         0.0799
     44 H14         1.4827   -4.2899    6.5635 H         1 <0>         0.0859
     45 H15         2.9887   -5.2367    6.4475 H         1 <0>         0.0727
     46 H16         2.1046   -3.4362    8.7400 H         1 <0>         0.0965
     47 H17         2.3156   -5.2004    8.7780 H         1 <0>         0.0925
     48 H18         7.1432   -3.1287    7.5504 H         1 <0>         0.1590
     49 H19         3.7408   -4.7464   10.7316 H         1 <0>         0.1533
     50 H20         8.5336   -4.5090   13.3282 H         1 <0>         0.4438
     51 H21         9.6636   -3.9531   12.2161 H         1 <0>         0.4437
     52 H22         8.8001   -3.4507    9.8602 H         1 <0>         0.4591
@<TRIPOS>BOND
     1    1    6 ar
     2    1    2 ar
     3    1   32 1
     4    2    3 ar
     5    2   33 1
     6    3    4 ar
     7    3   34 1
     8    4    5 ar
     9    4    7 1
    10    5    6 ar
    11    5   35 1
    12    6   36 1
    13    7    8 2
    14    7    9 2
    15    7   10 1
    16   10   15 ar
    17   10   11 ar
    18   11   12 ar
    19   11   37 1
    20   12   13 ar
    21   12   38 1
    22   13   14 ar
    23   13   16 1
    24   14   15 ar
    25   14   39 1
    26   15   40 1
    27   16   17 1
    28   17   22 1
    29   17   18 1
    30   17   41 1
    31   18   19 1
    32   18   42 1
    33   18   43 1
    34   19   20 1
    35   19   44 1
    36   19   45 1
    37   20   21 1
    38   20   46 1
    39   20   47 1
    40   21   26 ar
    41   21   22 ar
    42   22   23 ar
    43   23   24 ar
    44   23   48 1
    45   24   30 1
    46   24   25 ar
    47   25   26 ar
    48   25   27 1
    49   26   49 1
    50   27   28 1
    51   27   29 1
    52   29   30 2
    53   29   31 1
    54   30   52 1
    55   31   50 1
    56   31   51 1
@<TRIPOS>MOLECULE
CHEMBL353191__1
   51    55     0     0     0
SMALL
USER_CHARGES

@<TRIPOS>ATOM
      1 C1          2.8209    3.1036   12.6815 C.ar      1 <0>        -0.0629
      2 C2          3.3200    3.8920   11.6616 C.ar      1 <0>        -0.1388
      3 C3          2.9311    3.6603   10.3554 C.ar      1 <0>        -0.0222
      4 C4          2.0435    2.6400   10.0692 C.ar      1 <0>        -0.6578
      5 C5          1.5452    1.8510   11.0890 C.ar      1 <0>        -0.0228
      6 C6          1.9329    2.0835   12.3953 C.ar      1 <0>        -0.1391
      7 S1          1.5470    2.3454    8.4044 S.o2      1 <0>         2.5822
      8 O1          0.2903    1.6850    8.4663 O.2       1 <0>        -0.9360
      9 O2          1.7317    3.5675    7.7032 O.2       1 <0>        -0.9352
     10 C7          2.6883    1.1927    7.7165 C.ar      1 <0>        -0.6681
     11 C8          3.8317    1.6472    7.0850 C.ar      1 <0>         0.0001
     12 C9          4.7282    0.7468    6.5443 C.ar      1 <0>        -0.1221
     13 C10         4.4806   -0.6177    6.6358 C.ar      1 <0>        -0.0319
     14 C11         3.3308   -1.0707    7.2716 C.ar      1 <0>        -0.1586
     15 C12         2.4415   -0.1646    7.8145 C.ar      1 <0>         0.0014
     16 S2          5.6213   -1.7703    5.9469 S.3       1 <0>        -0.0761
     17 C13         4.9882   -3.3852    6.4780 C.3       1 <0>        -0.0297
     18 C14         5.1821   -3.5308    7.9858 C.3       1 <0>        -0.1211
     19 C15         4.8433   -4.9732    8.3799 C.3       1 <0>        -0.1160
     20 C16         5.9339   -5.8907    7.8310 C.3       1 <0>        -0.0778
     21 C17         6.1565   -5.6303    6.3635 C.ar      1 <0>        -0.0557
     22 C18         5.7241   -4.4743    5.7408 C.ar      1 <0>        -0.0683
     23 C19         5.9603   -4.2833    4.3907 C.ar      1 <0>        -0.0695
     24 C20         6.6312   -5.2532    3.6473 C.ar      1 <0>         0.0859
     25 C21         7.0652   -6.4274    4.2845 C.ar      1 <0>         0.0509
     26 C22         6.8235   -6.6036    5.6353 C.ar      1 <0>        -0.1059
     27 N1          7.6862   -7.1886    3.3077 N.pl3     1 <0>        -0.6255
     28 H1          8.0933   -8.0605    3.4301 H         1 <0>         0.4205
     29 C23         7.6187   -6.4832    2.1406 C.2       1 <0>         0.5506
     30 N2          6.9991   -5.3471    2.3423 N.2       1 <0>        -0.5459
     31 N3          8.1274   -6.9041    0.9299 N.pl3     1 <0>        -0.8297
     32 H2          3.1282    3.2817   13.7014 H         1 <0>         0.1324
     33 H3          4.0135    4.6892   11.8852 H         1 <0>         0.1350
     34 H4          3.3205    4.2767    9.5587 H         1 <0>         0.1427
     35 H5          0.8514    1.0540   10.8654 H         1 <0>         0.1422
     36 H6          1.5433    1.4674   13.1921 H         1 <0>         0.1347
     37 H7          4.0234    2.7077    7.0142 H         1 <0>         0.1473
     38 H8          5.6204    1.1025    6.0507 H         1 <0>         0.1400
     39 H9          3.1352   -2.1304    7.3446 H         1 <0>         0.1370
     40 H10         1.5498   -0.5161    8.3122 H         1 <0>         0.1451
     41 H11         3.9252   -3.4486    6.2452 H         1 <0>         0.1068
     42 H12         6.2180   -3.3129    8.2454 H         1 <0>         0.0834
     43 H13         4.5192   -2.8419    8.5093 H         1 <0>         0.0763
     44 H14         4.8047   -5.0577    9.4659 H         1 <0>         0.0763
     45 H15         3.8795   -5.2534    7.9548 H         1 <0>         0.0698
     46 H16         6.8622   -5.7097    8.3730 H         1 <0>         0.0795
     47 H17         5.6337   -6.9292    7.9703 H         1 <0>         0.0780
     48 H18         5.6225   -3.3772    3.9098 H         1 <0>         0.1374
     49 H19         7.1573   -7.5057    6.1263 H         1 <0>         0.1239
     50 H20         8.5746   -7.7623    0.8638 H         1 <0>         0.4110
     51 H21         8.0380   -6.3419    0.1445 H         1 <0>         0.4266
@<TRIPOS>BOND
     1    1    6 ar
     2    1    2 ar
     3    1   32 1
     4    2    3 ar
     5    2   33 1
     6    3    4 ar
     7    3   34 1
     8    4    5 ar
     9    4    7 1
    10    5    6 ar
    11    5   35 1
    12    6   36 1
    13    7    8 2
    14    7    9 2
    15    7   10 1
    16   10   15 ar
    17   10   11 ar
    18   11   12 ar
    19   11   37 1
    20   12   13 ar
    21   12   38 1
    22   13   14 ar
    23   13   16 1
    24   14   15 ar
    25   14   39 1
    26   15   40 1
    27   16   17 1
    28   17   22 1
    29   17   18 1
    30   17   41 1
    31   18   19 1
    32   18   42 1
    33   18   43 1
    34   19   20 1
    35   19   44 1
    36   19   45 1
    37   20   21 1
    38   20   46 1
    39   20   47 1
    40   21   26 ar
    41   21   22 ar
    42   22   23 ar
    43   23   24 ar
    44   23   48 1
    45   24   30 1
    46   24   25 ar
    47   25   26 ar
    48   25   27 1
    49   26   49 1
    50   27   28 1
    51   27   29 1
    52   29   30 2
    53   29   31 1
    54   31   50 1
    55   31   51 1
@<TRIPOS>MOLECULE
CHEMBL353191__2
   51    55     0     0     0
SMALL
USER_CHARGES

@<TRIPOS>ATOM
      1 C1          1.6691   -4.5298   -1.3822 C.ar      1 <0>        -0.0613
      2 C2          1.1820   -3.3006   -0.9788 C.ar      1 <0>        -0.1382
      3 C3          2.0587   -2.2919   -0.6257 C.ar      1 <0>        -0.0221
      4 C4          3.4225   -2.5125   -0.6756 C.ar      1 <0>        -0.6588
      5 C5          3.9095   -3.7420   -1.0782 C.ar      1 <0>        -0.0223
      6 C6          3.0328   -4.7503   -1.4326 C.ar      1 <0>        -0.1385
      7 S1          4.5400   -1.2263   -0.2267 S.o2      1 <0>         2.5793
      8 O1          5.7693   -1.5097   -0.8807 O.2       1 <0>        -0.9322
      9 O2          3.8441   -0.0011   -0.4105 O.2       1 <0>        -0.9317
     10 C7          4.8426   -1.3790    1.5024 C.ar      1 <0>        -0.6376
     11 C8          4.0310   -0.7173    2.4058 C.ar      1 <0>        -0.0281
     12 C9          4.2654   -0.8343    3.7616 C.ar      1 <0>        -0.0898
     13 C10         5.3180   -1.6185    4.2179 C.ar      1 <0>        -0.0659
     14 C11         6.1312   -2.2824    3.3071 C.ar      1 <0>        -0.0945
     15 C12         5.8876   -2.1649    1.9531 C.ar      1 <0>        -0.0280
     16 S2          5.6213   -1.7703    5.9469 S.3       1 <0>        -0.1368
     17 C13         4.7619   -3.2990    6.4107 C.3       1 <0>        -0.0111
     18 C14         3.2575   -3.1043    6.2341 C.3       1 <0>        -0.1159
     19 C15         2.5395   -4.3209    6.8301 C.3       1 <0>        -0.1157
     20 C16         2.6884   -4.2713    8.3492 C.3       1 <0>        -0.0790
     21 C17         4.1340   -4.0894    8.7346 C.ar      1 <0>        -0.0572
     22 C18         5.0884   -3.6379    7.8423 C.ar      1 <0>        -0.0657
     23 C19         6.4039   -3.4826    8.2520 C.ar      1 <0>        -0.0891
     24 C20         6.7743   -3.7804    9.5513 C.ar      1 <0>         0.0394
     25 C21         5.8094   -4.2430   10.4613 C.ar      1 <0>         0.0958
     26 C22         4.4899   -4.3925   10.0371 C.ar      1 <0>        -0.0867
     27 N1          6.4444   -4.4545   11.6442 N.2       1 <0>        -0.5502
     28 C23         7.7137   -4.1560   11.5216 C.2       1 <0>         0.5531
     29 N2          7.9704   -3.7338   10.2488 N.pl3     1 <0>        -0.6247
     30 N3          8.6513   -4.2539   12.5281 N.pl3     1 <0>        -0.8297
     31 H1          0.9840   -5.3194   -1.6538 H         1 <0>         0.1333
     32 H2          0.1166   -3.1283   -0.9398 H         1 <0>         0.1358
     33 H3          1.6783   -1.3313   -0.3113 H         1 <0>         0.1430
     34 H4          4.9749   -3.9142   -1.1175 H         1 <0>         0.1426
     35 H5          3.4133   -5.7107   -1.7475 H         1 <0>         0.1355
     36 H6          3.2131   -0.1080    2.0505 H         1 <0>         0.1486
     37 H7          3.6317   -0.3167    4.4665 H         1 <0>         0.1446
     38 H8          6.9501   -2.8927    3.6582 H         1 <0>         0.1422
     39 H9          6.5166   -2.6837    1.2449 H         1 <0>         0.1479
     40 H10         5.0970   -4.1100    5.7640 H         1 <0>         0.0984
     41 H11         2.9409   -2.2001    6.7540 H         1 <0>         0.0828
     42 H12         3.0201   -3.0209    5.1736 H         1 <0>         0.0686
     43 H13         1.4830   -4.2905    6.5636 H         1 <0>         0.0743
     44 H14         2.9892   -5.2368    6.4468 H         1 <0>         0.0674
     45 H15         2.1046   -3.4381    8.7405 H         1 <0>         0.0802
     46 H16         2.3167   -5.2022    8.7773 H         1 <0>         0.0791
     47 H17         7.1450   -3.1269    7.5515 H         1 <0>         0.1303
     48 H18         3.7406   -4.7471   10.7294 H         1 <0>         0.1308
     49 H19         8.3874   -4.5644   13.4083 H         1 <0>         0.4263
     50 H20         9.5748   -4.0122   12.3558 H         1 <0>         0.4111
     51 H21         8.8303   -3.4538    9.8980 H         1 <0>         0.4205
@<TRIPOS>BOND
     1    1    6 ar
     2    1    2 ar
     3    1   31 1
     4    2    3 ar
     5    2   32 1
     6    3    4 ar
     7    3   33 1
     8    4    5 ar
     9    4    7 1
    10    5    6 ar
    11    5   34 1
    12    6   35 1
    13    7    8 2
    14    7    9 2
    15    7   10 1
    16   10   15 ar
    17   10   11 ar
    18   11   12 ar
    19   11   36 1
    20   12   13 ar
    21   12   37 1
    22   13   14 ar
    23   13   16 1
    24   14   15 ar
    25   14   38 1
    26   15   39 1
    27   16   17 1
    28   17   22 1
    29   17   18 1
    30   17   40 1
    31   18   19 1
    32   18   41 1
    33   18   42 1
    34   19   20 1
    35   19   43 1
    36   19   44 1
    37   20   21 1
    38   20   45 1
    39   20   46 1
    40   21   26 ar
    41   21   22 ar
    42   22   23 ar
    43   23   24 ar
    44   23   47 1
    45   24   29 1
    46   24   25 ar
    47   25   26 ar
    48   25   27 1
    49   26   48 1
    50   27   28 2
    51   28   29 1
    52   28   30 1
    53   29   51 1
    54   30   49 1
    55   30   50 1
@<TRIPOS>MOLECULE
CHEMBL353191__3
   52    56     0     0     0
SMALL
USER_CHARGES

@<TRIPOS>ATOM
      1 C1          5.9119    2.9760   -1.4246 C.ar      1 <0>        -0.0590
      2 C2          6.6687    1.8245   -1.5361 C.ar      1 <0>        -0.1373
      3 C3          6.1410    0.6097   -1.1403 C.ar      1 <0>        -0.0224
      4 C4          4.8568    0.5463   -0.6328 C.ar      1 <0>        -0.6605
      5 C5          4.1004    1.6979   -0.5205 C.ar      1 <0>        -0.0229
      6 C6          4.6275    2.9125   -0.9175 C.ar      1 <0>        -0.1377
      7 S1          4.1838   -1.0024   -0.1295 S.o2      1 <0>         2.5777
      8 O1          2.7704   -0.8729   -0.1991 O.2       1 <0>        -0.9292
      9 O2          4.8931   -2.0050   -0.8443 O.2       1 <0>        -0.9283
     10 C7          4.5866   -1.2171    1.5724 C.ar      1 <0>        -0.6305
     11 C8          5.7686   -1.8409    1.9281 C.ar      1 <0>        -0.0264
     12 C9          6.0874   -2.0113    3.2608 C.ar      1 <0>        -0.0864
     13 C10         5.2190   -1.5546    4.2451 C.ar      1 <0>        -0.0748
     14 C11         4.0325   -0.9278    3.8839 C.ar      1 <0>        -0.0921
     15 C12         3.7228   -0.7563    2.5492 C.ar      1 <0>        -0.0269
     16 S2          5.6213   -1.7703    5.9469 S.3       1 <0>        -0.1286
     17 C13         4.7619   -3.2990    6.4107 C.3       1 <0>        -0.0348
     18 C14         5.3767   -4.4725    5.6511 C.3       1 <0>        -0.1214
     19 C15         4.7885   -5.7728    6.2114 C.3       1 <0>        -0.1211
     20 C16         5.3414   -5.9834    7.6194 C.3       1 <0>        -0.0914
     21 C17         5.1487   -4.7443    8.4552 C.ar      1 <0>        -0.0100
     22 C18         4.8854   -3.5068    7.8982 C.ar      1 <0>        -0.0253
     23 C19         4.7230   -2.3996    8.7125 C.ar      1 <0>        -0.0674
     24 C20         4.8199   -2.5219   10.0978 C.ar      1 <0>         0.0576
     25 C21         5.0840   -3.7824   10.6584 C.ar      1 <0>         0.0941
     26 C22         5.2455   -4.8800    9.8317 C.ar      1 <0>        -0.0909
     27 N1          5.1201   -3.5938   12.0304 N.pl3     1 <0>        -0.5706
     28 H1          5.2816   -4.2760   12.7008 H         1 <0>         0.4602
     29 C23         4.8865   -2.2689   12.2633 C.cat     1 <0>         0.6580
     30 N2          4.7107   -1.6413   11.1273 N.pl3     1 <0>        -0.5337
     31 N3          4.8421   -1.6793   13.5092 N.pl3     1 <0>        -0.7931
     32 H2          6.3258    3.9258   -1.7296 H         1 <0>         0.1349
     33 H3          7.6720    1.8740   -1.9326 H         1 <0>         0.1370
     34 H4          6.7320   -0.2900   -1.2281 H         1 <0>         0.1431
     35 H5          3.0969    1.6483   -0.1243 H         1 <0>         0.1426
     36 H6          4.0364    3.8122   -0.8302 H         1 <0>         0.1366
     37 H7          6.4429   -2.1956    1.1626 H         1 <0>         0.1518
     38 H8          7.0102   -2.4992    3.5378 H         1 <0>         0.1457
     39 H9          3.3553   -0.5716    4.6461 H         1 <0>         0.1424
     40 H10         2.8027   -0.2656    2.2677 H         1 <0>         0.1509
     41 H11         3.7080   -3.2131    6.1462 H         1 <0>         0.1140
     42 H12         5.1383   -4.3888    4.5908 H         1 <0>         0.0807
     43 H13         6.4583   -4.4708    5.7859 H         1 <0>         0.0873
     44 H14         3.7019   -5.6971    6.2511 H         1 <0>         0.0734
     45 H15         5.0758   -6.6099    5.5752 H         1 <0>         0.0867
     46 H16         4.8208   -6.8181    8.0888 H         1 <0>         0.0927
     47 H17         6.4050   -6.2132    7.5572 H         1 <0>         0.0966
     48 H18         4.5203   -1.4347    8.2719 H         1 <0>         0.1588
     49 H19         5.4484   -5.8497   10.2617 H         1 <0>         0.1534
     50 H20         4.9835   -2.2157   14.3049 H         1 <0>         0.4437
     51 H21         4.6695   -0.7282   13.5898 H         1 <0>         0.4436
     52 H22         4.5307   -0.6927   11.0348 H         1 <0>         0.4589
@<TRIPOS>BOND
     1    1    6 ar
     2    1    2 ar
     3    1   32 1
     4    2    3 ar
     5    2   33 1
     6    3    4 ar
     7    3   34 1
     8    4    5 ar
     9    4    7 1
    10    5    6 ar
    11    5   35 1
    12    6   36 1
    13    7    8 2
    14    7    9 2
    15    7   10 1
    16   10   15 ar
    17   10   11 ar
    18   11   12 ar
    19   11   37 1
    20   12   13 ar
    21   12   38 1
    22   13   14 ar
    23   13   16 1
    24   14   15 ar
    25   14   39 1
    26   15   40 1
    27   16   17 1
    28   17   22 1
    29   17   18 1
    30   17   41 1
    31   18   19 1
    32   18   42 1
    33   18   43 1
    34   19   20 1
    35   19   44 1
    36   19   45 1
    37   20   21 1
    38   20   46 1
    39   20   47 1
    40   21   26 ar
    41   21   22 ar
    42   22   23 ar
    43   23   24 ar
    44   23   48 1
    45   24   30 1
    46   24   25 ar
    47   25   26 ar
    48   25   27 1
    49   26   49 1
    50   27   28 1
    51   27   29 1
    52   29   30 2
    53   29   31 1
    54   30   52 1
    55   31   50 1
    56   31   51 1
@<TRIPOS>MOLECULE
CHEMBL353191__4
   51    55     0     0     0
SMALL
USER_CHARGES

@<TRIPOS>ATOM
      1 C1         12.9613   -3.2478    1.3760 C.ar      1 <0>        -0.0627
      2 C2         13.0034   -2.0229    2.0154 C.ar      1 <0>        -0.1388
      3 C3         12.6488   -1.9263    3.3480 C.ar      1 <0>        -0.0223
      4 C4         12.2518   -3.0546    4.0411 C.ar      1 <0>        -0.6582
      5 C5         12.2089   -4.2793    3.4014 C.ar      1 <0>        -0.0227
      6 C6         12.5648   -4.3761    2.0692 C.ar      1 <0>        -0.1391
      7 S1         11.8009   -2.9317    5.7400 S.o2      1 <0>         2.5826
      8 O1         11.9908   -4.2217    6.3049 O.2       1 <0>        -0.9362
      9 O2         12.4488   -1.7741    6.2494 O.2       1 <0>        -0.9354
     10 C7         10.0702   -2.6064    5.7975 C.ar      1 <0>        -0.6683
     11 C8          9.6128   -1.3012    5.7876 C.ar      1 <0>         0.0002
     12 C9          8.2572   -1.0425    5.8330 C.ar      1 <0>        -0.1221
     13 C10         7.3521   -2.0956    5.8883 C.ar      1 <0>        -0.0318
     14 C11         7.8153   -3.4059    5.8976 C.ar      1 <0>        -0.1586
     15 C12         9.1721   -3.6571    5.8467 C.ar      1 <0>         0.0014
     16 S2          5.6213   -1.7703    5.9469 S.3       1 <0>        -0.0766
     17 C13         4.8767   -3.4030    6.2127 C.3       1 <0>        -0.0291
     18 C14         5.2170   -3.8884    7.6201 C.3       1 <0>        -0.1223
     19 C15         4.4076   -5.1596    7.9021 C.3       1 <0>        -0.1159
     20 C16         2.9378   -4.7715    8.0485 C.3       1 <0>        -0.0781
     21 C17         2.4907   -3.9372    6.8759 C.ar      1 <0>        -0.0552
     22 C18         3.3838   -3.3035    6.0323 C.ar      1 <0>        -0.0680
     23 C19         2.9186   -2.5439    4.9732 C.ar      1 <0>        -0.0698
     24 C20         1.5495   -2.4134    4.7458 C.ar      1 <0>         0.0856
     25 C21         0.6466   -3.0624    5.6041 C.ar      1 <0>         0.0509
     26 C22         1.1264   -3.8172    6.6597 C.ar      1 <0>        -0.1058
     27 N1         -0.6200   -2.7554    5.1342 N.pl3     1 <0>        -0.6255
     28 H1         -1.4618   -3.0540    5.5122 H         1 <0>         0.4205
     29 C23        -0.4627   -1.9538    4.0401 C.2       1 <0>         0.5506
     30 N2          0.8117   -1.7541    3.8140 N.2       1 <0>        -0.5463
     31 N3         -1.4924   -1.4321    3.2856 N.pl3     1 <0>        -0.8298
     32 H2         13.2340   -3.3225    0.3336 H         1 <0>         0.1325
     33 H3         13.3135   -1.1415    1.4739 H         1 <0>         0.1351
     34 H4         12.6823   -0.9695    3.8477 H         1 <0>         0.1427
     35 H5         11.8990   -5.1608    3.9430 H         1 <0>         0.1422
     36 H6         12.5316   -5.3330    1.5696 H         1 <0>         0.1348
     37 H7         10.3169   -0.4834    5.7447 H         1 <0>         0.1472
     38 H8          7.9008   -0.0231    5.8260 H         1 <0>         0.1400
     39 H9          7.1147   -4.2267    5.9404 H         1 <0>         0.1371
     40 H10         9.5327   -4.6751    5.8498 H         1 <0>         0.1450
     41 H11         5.2808   -4.1052    5.4835 H         1 <0>         0.1062
     42 H12         6.2824   -4.1097    7.6845 H         1 <0>         0.0772
     43 H13         4.9569   -3.1188    8.3468 H         1 <0>         0.0839
     44 H14         4.5220   -5.8591    7.0740 H         1 <0>         0.0695
     45 H15         4.7590   -5.6215    8.8248 H         1 <0>         0.0770
     46 H16         2.3307   -5.6754    8.0988 H         1 <0>         0.0780
     47 H17         2.8068   -4.1998    8.9672 H         1 <0>         0.0799
     48 H18         3.6208   -2.0487    4.3189 H         1 <0>         0.1369
     49 H19         0.4330   -4.3168    7.3201 H         1 <0>         0.1241
     50 H20        -2.4130   -1.6282    3.5200 H         1 <0>         0.4111
     51 H21        -1.2961   -0.8692    2.5204 H         1 <0>         0.4265
@<TRIPOS>BOND
     1    1    6 ar
     2    1    2 ar
     3    1   32 1
     4    2    3 ar
     5    2   33 1
     6    3    4 ar
     7    3   34 1
     8    4    5 ar
     9    4    7 1
    10    5    6 ar
    11    5   35 1
    12    6   36 1
    13    7    8 2
    14    7    9 2
    15    7   10 1
    16   10   15 ar
    17   10   11 ar
    18   11   12 ar
    19   11   37 1
    20   12   13 ar
    21   12   38 1
    22   13   14 ar
    23   13   16 1
    24   14   15 ar
    25   14   39 1
    26   15   40 1
    27   16   17 1
    28   17   22 1
    29   17   18 1
    30   17   41 1
    31   18   19 1
    32   18   42 1
    33   18   43 1
    34   19   20 1
    35   19   44 1
    36   19   45 1
    37   20   21 1
    38   20   46 1
    39   20   47 1
    40   21   26 ar
    41   21   22 ar
    42   22   23 ar
    43   23   24 ar
    44   23   48 1
    45   24   30 1
    46   24   25 ar
    47   25   26 ar
    48   25   27 1
    49   26   49 1
    50   27   28 1
    51   27   29 1
    52   29   30 2
    53   29   31 1
    54   31   50 1
    55   31   51 1
@<TRIPOS>MOLECULE
CHEMBL353191__5
   51    55     0     0     0
SMALL
USER_CHARGES

@<TRIPOS>ATOM
      1 C1          5.9120    2.9759   -1.4246 C.ar      1 <0>        -0.0613
      2 C2          6.6687    1.8245   -1.5361 C.ar      1 <0>        -0.1384
      3 C3          6.1411    0.6096   -1.1404 C.ar      1 <0>        -0.0220
      4 C4          4.8568    0.5463   -0.6328 C.ar      1 <0>        -0.6589
      5 C5          4.1004    1.6979   -0.5205 C.ar      1 <0>        -0.0223
      6 C6          4.6276    2.9125   -0.9176 C.ar      1 <0>        -0.1386
      7 S1          4.1838   -1.0024   -0.1295 S.o2      1 <0>         2.5797
      8 O1          2.7705   -0.8729   -0.1991 O.2       1 <0>        -0.9324
      9 O2          4.8931   -2.0050   -0.8443 O.2       1 <0>        -0.9318
     10 C7          4.5867   -1.2171    1.5724 C.ar      1 <0>        -0.6380
     11 C8          5.7686   -1.8409    1.9281 C.ar      1 <0>        -0.0280
     12 C9          6.0874   -2.0113    3.2608 C.ar      1 <0>        -0.0899
     13 C10         5.2191   -1.5546    4.2451 C.ar      1 <0>        -0.0657
     14 C11         4.0325   -0.9278    3.8839 C.ar      1 <0>        -0.0947
     15 C12         3.7228   -0.7563    2.5492 C.ar      1 <0>        -0.0279
     16 S2          5.6213   -1.7703    5.9469 S.3       1 <0>        -0.1382
     17 C13         4.7619   -3.2990    6.4107 C.3       1 <0>        -0.0111
     18 C14         5.3768   -4.4726    5.6512 C.3       1 <0>        -0.1165
     19 C15         4.7881   -5.7727    6.2116 C.3       1 <0>        -0.1162
     20 C16         5.3403   -5.9834    7.6198 C.3       1 <0>        -0.0792
     21 C17         5.1481   -4.7442    8.4556 C.ar      1 <0>        -0.0567
     22 C18         4.8854   -3.5068    7.8981 C.ar      1 <0>        -0.0652
     23 C19         4.7234   -2.3976    8.7142 C.ar      1 <0>        -0.0893
     24 C20         4.8195   -2.5177   10.0892 C.ar      1 <0>         0.0392
     25 C21         5.0828   -3.7732   10.6613 C.ar      1 <0>         0.0957
     26 C22         5.2450   -4.8800    9.8294 C.ar      1 <0>        -0.0866
     27 N1          5.1213   -3.5984   12.0086 N.2       1 <0>        -0.5500
     28 C23         4.9036   -2.3391   12.2952 C.2       1 <0>         0.5527
     29 N2          4.7116   -1.6279   11.1456 N.pl3     1 <0>        -0.6248
     30 N3          4.8732   -1.8102   13.5684 N.pl3     1 <0>        -0.8299
     31 H1          6.3258    3.9257   -1.7296 H         1 <0>         0.1334
     32 H2          7.6721    1.8740   -1.9326 H         1 <0>         0.1358
     33 H3          6.7320   -0.2901   -1.2281 H         1 <0>         0.1431
     34 H4          3.0969    1.6483   -0.1243 H         1 <0>         0.1427
     35 H5          4.0365    3.8121   -0.8302 H         1 <0>         0.1356
     36 H6          6.4429   -2.1956    1.1626 H         1 <0>         0.1485
     37 H7          7.0102   -2.4992    3.5379 H         1 <0>         0.1446
     38 H8          3.3553   -0.5716    4.6461 H         1 <0>         0.1421
     39 H9          2.8028   -0.2656    2.2677 H         1 <0>         0.1478
     40 H10         3.7080   -3.2132    6.1461 H         1 <0>         0.0992
     41 H11         5.1388   -4.3889    4.5908 H         1 <0>         0.0694
     42 H12         6.4584   -4.4711    5.7864 H         1 <0>         0.0826
     43 H13         3.7015   -5.6967    6.2509 H         1 <0>         0.0681
     44 H14         5.0754   -6.6099    5.5755 H         1 <0>         0.0752
     45 H15         4.8191   -6.8178    8.0890 H         1 <0>         0.0793
     46 H16         6.4039   -6.2138    7.5580 H         1 <0>         0.0803
     47 H17         4.5209   -1.4328    8.2733 H         1 <0>         0.1300
     48 H18         5.4478   -5.8495   10.2598 H         1 <0>         0.1309
     49 H19         5.0206   -2.3848   14.3359 H         1 <0>         0.4263
     50 H20         4.7046   -0.8636   13.6965 H         1 <0>         0.4110
     51 H21         4.5326   -0.6768   11.0807 H         1 <0>         0.4202
@<TRIPOS>BOND
     1    1    6 ar
     2    1    2 ar
     3    1   31 1
     4    2    3 ar
     5    2   32 1
     6    3    4 ar
     7    3   33 1
     8    4    5 ar
     9    4    7 1
    10    5    6 ar
    11    5   34 1
    12    6   35 1
    13    7    8 2
    14    7    9 2
    15    7   10 1
    16   10   15 ar
    17   10   11 ar
    18   11   12 ar
    19   11   36 1
    20   12   13 ar
    21   12   37 1
    22   13   14 ar
    23   13   16 1
    24   14   15 ar
    25   14   38 1
    26   15   39 1
    27   16   17 1
    28   17   22 1
    29   17   18 1
    30   17   40 1
    31   18   19 1
    32   18   41 1
    33   18   42 1
    34   19   20 1
    35   19   43 1
    36   19   44 1
    37   20   21 1
    38   20   45 1
    39   20   46 1
    40   21   26 ar
    41   21   22 ar
    42   22   23 ar
    43   23   24 ar
    44   23   47 1
    45   24   29 1
    46   24   25 ar
    47   25   26 ar
    48   25   27 1
    49   26   48 1
    50   27   28 2
    51   28   29 1
    52   28   30 1
    53   29   51 1
    54   30   49 1
    55   30   50 1
@<TRIPOS>MOLECULE
CHEMBL1159763
   55    58     0     0     0
SMALL
USER_CHARGES

@<TRIPOS>ATOM
      1 C1         -0.0167    1.3781    0.0096 C.ar      1 <0>        -0.1137
      2 C2          1.1709    2.0855    0.0021 C.ar      1 <0>        -0.1226
      3 C3          2.3773    1.4107   -0.0130 C.ar      1 <0>        -0.0923
      4 C4          2.3960    0.0285   -0.0201 C.ar      1 <0>        -0.0925
      5 C5          1.2084   -0.6789   -0.0117 C.ar      1 <0>        -0.0969
      6 C6          0.0021   -0.0041    0.0020 C.ar      1 <0>        -0.1270
      7 C7          3.7112   -0.7071   -0.0376 C.3       1 <0>         0.0998
      8 O1          4.1410   -0.9464    1.3041 O.3       1 <0>        -0.3080
      9 C8          5.3188   -1.6050    1.4666 C.ar      1 <0>         0.1308
     10 C9          6.0467   -2.0066    0.3550 C.ar      1 <0>        -0.2094
     11 C10         7.2421   -2.6756    0.5165 C.ar      1 <0>        -0.0496
     12 C11         7.7191   -2.9479    1.7977 C.ar      1 <0>        -0.0459
     13 C12         6.9859   -2.5429    2.9119 C.ar      1 <0>        -0.0583
     14 C13         5.7938   -1.8696    2.7437 C.ar      1 <0>        -0.1445
     15 C14         9.0038   -3.6675    1.9750 C.2       1 <0>        -0.2351
     16 C15        10.0728   -3.0554    2.5585 C.2       1 <0>         0.2001
     17 N1         11.2431   -3.7444    2.7079 N.am      1 <0>        -0.5336
     18 C16        11.3640   -5.0153    2.2913 C.2       1 <0>         0.7014
     19 O2         12.4248   -5.5893    2.4453 O.2       1 <0>        -0.5452
     20 N2         10.3447   -5.6708    1.7089 N.am      1 <0>        -0.6577
     21 H1         10.4639   -6.5888    1.4191 H         1 <0>         0.4277
     22 C17         9.1544   -5.0598    1.5316 C.2       1 <0>         0.5589
     23 O3          8.2257   -5.6491    1.0101 O.2       1 <0>        -0.5107
     24 C18        12.3899   -3.0829    3.3351 C.3       1 <0>         0.2989
     25 C19        12.8049   -3.8502    4.6089 C.3       1 <0>        -0.1827
     26 C20        13.1631   -2.6974    5.5861 C.3       1 <0>         0.0750
     27 C21        12.1395   -1.6172    5.1544 C.3       1 <0>         0.0845
     28 O4         12.0288   -1.7538    3.7288 O.3       1 <0>        -0.3383
     29 C22        12.6549   -0.2227    5.5158 C.3       1 <0>         0.1406
     30 O5         11.6503    0.7486    5.2171 O.3       1 <0>        -0.7555
     31 P1         11.8518    2.3255    5.4719 P.3       1 <0>         2.1290
     32 O6         12.2458    2.5664    6.9690 O.2       1 <0>        -1.1901
     33 O7         12.9897    2.8639    4.5393 O.3       1 <0>        -1.1865
     34 O8         10.5161    3.0806    5.1554 O.3       1 <0>        -1.1669
     35 O9         14.5039   -2.2472    5.3820 O.3       1 <0>        -0.5364
     36 H2         -0.9591    1.9053    0.0259 H         1 <0>         0.1216
     37 H3          1.1563    3.1654    0.0076 H         1 <0>         0.1255
     38 H4          3.3051    1.9634   -0.0196 H         1 <0>         0.1285
     39 H5          1.2231   -1.7588   -0.0176 H         1 <0>         0.1232
     40 H6         -0.9258   -0.5567    0.0082 H         1 <0>         0.1222
     41 H7          3.5884   -1.6586   -0.5549 H         1 <0>         0.0697
     42 H8          4.4573   -0.1052   -0.5563 H         1 <0>         0.0733
     43 H9          5.6765   -1.7953   -0.6373 H         1 <0>         0.1263
     44 H10         7.8077   -2.9885   -0.3488 H         1 <0>         0.1222
     45 H11         7.3526   -2.7527    3.9058 H         1 <0>         0.1326
     46 H12         5.2274   -1.5517    3.6065 H         1 <0>         0.1340
     47 H13         9.9953   -2.0337    2.8998 H         1 <0>         0.1955
     48 H14        13.2245   -3.0472    2.6349 H         1 <0>         0.1215
     49 H15        11.9738   -4.4409    4.9939 H         1 <0>         0.0882
     50 H16        13.6736   -4.4798    4.4167 H         1 <0>         0.1035
     51 H17        13.0047   -2.9971    6.6220 H         1 <0>         0.0884
     52 H18        11.1749   -1.7994    5.6280 H         1 <0>         0.0942
     53 H19        12.8903   -0.1867    6.5795 H         1 <0>         0.0540
     54 H20        13.5531   -0.0061    4.9374 H         1 <0>         0.0543
     55 H21        15.1747   -2.9264    5.5367 H         1 <0>         0.3738
@<TRIPOS>BOND
     1    1    6 ar
     2    1    2 ar
     3    1   36 1
     4    2    3 ar
     5    2   37 1
     6    3    4 ar
     7    3   38 1
     8    4    5 ar
     9    4    7 1
    10    5    6 ar
    11    5   39 1
    12    6   40 1
    13    7    8 1
    14    7   41 1
    15    7   42 1
    16    8    9 1
    17    9   14 ar
    18    9   10 ar
    19   10   11 ar
    20   10   43 1
    21   11   12 ar
    22   11   44 1
    23   12   13 ar
    24   12   15 1
    25   13   14 ar
    26   13   45 1
    27   14   46 1
    28   15   22 1
    29   15   16 2
    30   16   17 1
    31   16   47 1
    32   17   18 am
    33   17   24 1
    34   18   19 2
    35   18   20 am
    36   20   21 1
    37   20   22 am
    38   22   23 2
    39   24   28 1
    40   24   25 1
    41   24   48 1
    42   25   26 1
    43   25   49 1
    44   25   50 1
    45   26   27 1
    46   26   35 1
    47   26   51 1
    48   27   28 1
    49   27   29 1
    50   27   52 1
    51   29   30 1
    52   29   53 1
    53   29   54 1
    54   30   31 1
    55   31   32 2
    56   31   33 1
    57   31   34 1
    58   35   55 1
@<TRIPOS>MOLECULE
CHEMBL1159763__1
   56    59     0     0     0
SMALL
USER_CHARGES

@<TRIPOS>ATOM
      1 C1         -0.0167    1.3781    0.0096 C.ar      1 <0>        -0.1112
      2 C2          1.1709    2.0855    0.0021 C.ar      1 <0>        -0.1230
      3 C3          2.3773    1.4107   -0.0130 C.ar      1 <0>        -0.0940
      4 C4          2.3960    0.0285   -0.0201 C.ar      1 <0>        -0.0956
      5 C5          1.2084   -0.6789   -0.0117 C.ar      1 <0>        -0.0958
      6 C6          0.0021   -0.0041    0.0020 C.ar      1 <0>        -0.1247
      7 C7          3.7112   -0.7071   -0.0376 C.3       1 <0>         0.1006
      8 O1          4.1410   -0.9464    1.3041 O.3       1 <0>        -0.3082
      9 C8          5.3188   -1.6050    1.4666 C.ar      1 <0>         0.1337
     10 C9          6.0467   -2.0066    0.3550 C.ar      1 <0>        -0.2086
     11 C10         7.2421   -2.6756    0.5165 C.ar      1 <0>        -0.0477
     12 C11         7.7191   -2.9479    1.7977 C.ar      1 <0>        -0.0508
     13 C12         6.9859   -2.5429    2.9119 C.ar      1 <0>        -0.0605
     14 C13         5.7938   -1.8696    2.7437 C.ar      1 <0>        -0.1481
     15 C14         9.0038   -3.6675    1.9750 C.2       1 <0>        -0.2252
     16 C15        10.0728   -3.0554    2.5585 C.2       1 <0>         0.1910
     17 N1         11.2431   -3.7444    2.7079 N.am      1 <0>        -0.5371
     18 C16        11.3640   -5.0153    2.2913 C.2       1 <0>         0.7023
     19 O2         12.4248   -5.5893    2.4453 O.2       1 <0>        -0.5408
     20 N2         10.3447   -5.6708    1.7089 N.am      1 <0>        -0.6568
     21 H1         10.4639   -6.5888    1.4191 H         1 <0>         0.4308
     22 C17         9.1544   -5.0598    1.5316 C.2       1 <0>         0.5562
     23 O3          8.2257   -5.6491    1.0101 O.2       1 <0>        -0.5027
     24 C18        12.3899   -3.0829    3.3351 C.3       1 <0>         0.3043
     25 C19        12.8049   -3.8502    4.6089 C.3       1 <0>        -0.1847
     26 C20        13.1631   -2.6974    5.5861 C.3       1 <0>         0.0760
     27 C21        12.1395   -1.6172    5.1544 C.3       1 <0>         0.0838
     28 O4         12.0288   -1.7538    3.7288 O.3       1 <0>        -0.3453
     29 C22        12.6549   -0.2227    5.5158 C.3       1 <0>         0.1459
     30 O5         11.6503    0.7486    5.2171 O.3       1 <0>        -0.7579
     31 P1         11.8518    2.3255    5.4719 P.3       1 <0>         2.2116
     32 O6         12.2403    2.5631    6.9483 O.2       1 <0>        -1.1093
     33 O7         12.9740    2.8565    4.5522 O.3       1 <0>        -1.1049
     34 O8         10.4792    3.1015    5.1466 O.3       1 <0>        -0.8971
     35 O9         14.5039   -2.2472    5.3820 O.3       1 <0>        -0.5426
     36 H2         -0.9591    1.9053    0.0259 H         1 <0>         0.1233
     37 H3          1.1563    3.1654    0.0076 H         1 <0>         0.1256
     38 H4          3.3051    1.9634   -0.0196 H         1 <0>         0.1261
     39 H5          1.2231   -1.7588   -0.0176 H         1 <0>         0.1240
     40 H6         -0.9258   -0.5567    0.0082 H         1 <0>         0.1243
     41 H7          3.5884   -1.6586   -0.5549 H         1 <0>         0.0715
     42 H8          4.4573   -0.1052   -0.5563 H         1 <0>         0.0729
     43 H9          5.6765   -1.7953   -0.6373 H         1 <0>         0.1284
     44 H10         7.8077   -2.9885   -0.3488 H         1 <0>         0.1237
     45 H11         7.3526   -2.7527    3.9058 H         1 <0>         0.1311
     46 H12         5.2274   -1.5517    3.6065 H         1 <0>         0.1335
     47 H13         9.9953   -2.0337    2.8998 H         1 <0>         0.1907
     48 H14        13.2245   -3.0472    2.6349 H         1 <0>         0.1247
     49 H15        11.9738   -4.4409    4.9939 H         1 <0>         0.0918
     50 H16        13.6736   -4.4798    4.4167 H         1 <0>         0.1089
     51 H17        13.0047   -2.9971    6.6220 H         1 <0>         0.0929
     52 H18        11.1749   -1.7994    5.6280 H         1 <0>         0.0989
     53 H19        12.8903   -0.1867    6.5795 H         1 <0>         0.0730
     54 H20        13.5531   -0.0061    4.9374 H         1 <0>         0.0738
     55 H21        10.5275    4.0582    5.2785 H         1 <0>         0.4147
     56 H22        15.1747   -2.9264    5.5367 H         1 <0>         0.3828
@<TRIPOS>BOND
     1    1    6 ar
     2    1    2 ar
     3    1   36 1
     4    2    3 ar
     5    2   37 1
     6    3    4 ar
     7    3   38 1
     8    4    5 ar
     9    4    7 1
    10    5    6 ar
    11    5   39 1
    12    6   40 1
    13    7    8 1
    14    7   41 1
    15    7   42 1
    16    8    9 1
    17    9   14 ar
    18    9   10 ar
    19   10   11 ar
    20   10   43 1
    21   11   12 ar
    22   11   44 1
    23   12   13 ar
    24   12   15 1
    25   13   14 ar
    26   13   45 1
    27   14   46 1
    28   15   22 1
    29   15   16 2
    30   16   17 1
    31   16   47 1
    32   17   18 am
    33   17   24 1
    34   18   19 2
    35   18   20 am
    36   20   21 1
    37   20   22 am
    38   22   23 2
    39   24   28 1
    40   24   25 1
    41   24   48 1
    42   25   26 1
    43   25   49 1
    44   25   50 1
    45   26   27 1
    46   26   35 1
    47   26   51 1
    48   27   28 1
    49   27   29 1
    50   27   52 1
    51   29   30 1
    52   29   53 1
    53   29   54 1
    54   30   31 1
    55   31   32 2
    56   31   33 1
    57   31   34 1
    58   34   55 1
    59   35   56 1
@<TRIPOS>MOLECULE
CHEMBL1159763__2
   55    58     0     0     0
SMALL
USER_CHARGES

@<TRIPOS>ATOM
      1 C1         -0.0167    1.3781    0.0096 C.ar      1 <0>        -0.1139
      2 C2          1.1709    2.0855    0.0021 C.ar      1 <0>        -0.1227
      3 C3          2.3773    1.4107   -0.0130 C.ar      1 <0>        -0.0922
      4 C4          2.3960    0.0285   -0.0201 C.ar      1 <0>        -0.0922
      5 C5          1.2084   -0.6789   -0.0117 C.ar      1 <0>        -0.0967
      6 C6          0.0021   -0.0041    0.0020 C.ar      1 <0>        -0.1270
      7 C7          3.7112   -0.7071   -0.0376 C.3       1 <0>         0.0999
      8 O1          4.1410   -0.9464    1.3041 O.3       1 <0>        -0.3074
      9 C8          5.3188   -1.6050    1.4666 C.ar      1 <0>         0.1312
     10 C9          6.0467   -2.0066    0.3550 C.ar      1 <0>        -0.2111
     11 C10         7.2421   -2.6756    0.5165 C.ar      1 <0>        -0.0505
     12 C11         7.7191   -2.9479    1.7977 C.ar      1 <0>        -0.0487
     13 C12         6.9859   -2.5429    2.9119 C.ar      1 <0>        -0.0551
     14 C13         5.7938   -1.8696    2.7437 C.ar      1 <0>        -0.1424
     15 C14         9.0038   -3.6675    1.9750 C.2       1 <0>        -0.2313
     16 C15        10.0728   -3.0554    2.5585 C.2       1 <0>         0.2016
     17 N1         11.2431   -3.7444    2.7079 N.am      1 <0>        -0.5237
     18 C16        11.3640   -5.0153    2.2913 C.2       1 <0>         0.7042
     19 O2         12.4248   -5.5893    2.4453 O.2       1 <0>        -0.5442
     20 N2         10.3447   -5.6708    1.7089 N.am      1 <0>        -0.6566
     21 H1         10.4639   -6.5888    1.4191 H         1 <0>         0.4286
     22 C17         9.1544   -5.0598    1.5316 C.2       1 <0>         0.5591
     23 O3          8.2257   -5.6491    1.0101 O.2       1 <0>        -0.5083
     24 C18        12.3899   -3.0829    3.3351 C.3       1 <0>         0.3007
     25 C19        12.7582   -3.7786    4.6703 C.3       1 <0>        -0.1885
     26 C20        13.4750   -2.6431    5.4407 C.3       1 <0>         0.0762
     27 C21        12.9834   -1.3531    4.7559 C.3       1 <0>         0.0905
     28 O4         12.0442   -1.7405    3.7389 O.3       1 <0>        -0.3474
     29 C22        12.2965   -0.4490    5.7813 C.3       1 <0>         0.1351
     30 O5         11.9481    0.7920    5.1644 O.3       1 <0>        -0.7489
     31 P1         11.2077    1.9853    5.9518 P.3       1 <0>         2.1253
     32 O6          9.8865    1.4444    6.5969 O.2       1 <0>        -1.1852
     33 O7         12.1513    2.5336    7.0758 O.3       1 <0>        -1.1871
     34 O8         10.8649    3.1390    4.9488 O.3       1 <0>        -1.1648
     35 O9         14.8926   -2.7687    5.3120 O.3       1 <0>        -0.5527
     36 H2         -0.9591    1.9053    0.0259 H         1 <0>         0.1214
     37 H3          1.1563    3.1654    0.0076 H         1 <0>         0.1253
     38 H4          3.3051    1.9634   -0.0196 H         1 <0>         0.1284
     39 H5          1.2231   -1.7588   -0.0176 H         1 <0>         0.1232
     40 H6         -0.9258   -0.5567    0.0082 H         1 <0>         0.1221
     41 H7          3.5884   -1.6586   -0.5549 H         1 <0>         0.0694
     42 H8          4.4573   -0.1052   -0.5563 H         1 <0>         0.0727
     43 H9          5.6765   -1.7953   -0.6373 H         1 <0>         0.1257
     44 H10         7.8077   -2.9885   -0.3488 H         1 <0>         0.1214
     45 H11         7.3526   -2.7527    3.9058 H         1 <0>         0.1352
     46 H12         5.2274   -1.5517    3.6065 H         1 <0>         0.1358
     47 H13         9.9953   -2.0337    2.8998 H         1 <0>         0.1971
     48 H14        13.2433   -3.0720    2.6571 H         1 <0>         0.1111
     49 H15        11.8624   -4.1028    5.2000 H         1 <0>         0.0908
     50 H16        13.4322   -4.6179    4.4987 H         1 <0>         0.1029
     51 H17        13.1841   -2.6520    6.4912 H         1 <0>         0.0885
     52 H18        13.8256   -0.8300    4.3028 H         1 <0>         0.0973
     53 H19        11.3944   -0.9374    6.1498 H         1 <0>         0.0459
     54 H20        12.9749   -0.2630    6.6139 H         1 <0>         0.0551
     55 H21        15.2491   -3.5913    5.6746 H         1 <0>         0.3771
@<TRIPOS>BOND
     1    1    6 ar
     2    1    2 ar
     3    1   36 1
     4    2    3 ar
     5    2   37 1
     6    3    4 ar
     7    3   38 1
     8    4    5 ar
     9    4    7 1
    10    5    6 ar
    11    5   39 1
    12    6   40 1
    13    7    8 1
    14    7   41 1
    15    7   42 1
    16    8    9 1
    17    9   14 ar
    18    9   10 ar
    19   10   11 ar
    20   10   43 1
    21   11   12 ar
    22   11   44 1
    23   12   13 ar
    24   12   15 1
    25   13   14 ar
    26   13   45 1
    27   14   46 1
    28   15   22 1
    29   15   16 2
    30   16   17 1
    31   16   47 1
    32   17   18 am
    33   17   24 1
    34   18   19 2
    35   18   20 am
    36   20   21 1
    37   20   22 am
    38   22   23 2
    39   24   28 1
    40   24   25 1
    41   24   48 1
    42   25   26 1
    43   25   49 1
    44   25   50 1
    45   26   27 1
    46   26   35 1
    47   26   51 1
    48   27   28 1
    49   27   29 1
    50   27   52 1
    51   29   30 1
    52   29   53 1
    53   29   54 1
    54   30   31 1
    55   31   32 2
    56   31   33 1
    57   31   34 1
    58   35   55 1
@<TRIPOS>MOLECULE
CHEMBL1159763__3
   56    59     0     0     0
SMALL
USER_CHARGES

@<TRIPOS>ATOM
      1 C1         -0.0167    1.3781    0.0096 C.ar      1 <0>        -0.1114
      2 C2          1.1709    2.0855    0.0021 C.ar      1 <0>        -0.1231
      3 C3          2.3773    1.4107   -0.0130 C.ar      1 <0>        -0.0940
      4 C4          2.3960    0.0285   -0.0201 C.ar      1 <0>        -0.0953
      5 C5          1.2084   -0.6789   -0.0117 C.ar      1 <0>        -0.0957
      6 C6          0.0021   -0.0041    0.0020 C.ar      1 <0>        -0.1247
      7 C7          3.7112   -0.7071   -0.0376 C.3       1 <0>         0.1007
      8 O1          4.1410   -0.9464    1.3041 O.3       1 <0>        -0.3075
      9 C8          5.3188   -1.6050    1.4666 C.ar      1 <0>         0.1341
     10 C9          6.0467   -2.0066    0.3550 C.ar      1 <0>        -0.2102
     11 C10         7.2421   -2.6756    0.5165 C.ar      1 <0>        -0.0486
     12 C11         7.7191   -2.9479    1.7977 C.ar      1 <0>        -0.0536
     13 C12         6.9859   -2.5429    2.9119 C.ar      1 <0>        -0.0576
     14 C13         5.7938   -1.8696    2.7437 C.ar      1 <0>        -0.1460
     15 C14         9.0038   -3.6675    1.9750 C.2       1 <0>        -0.2213
     16 C15        10.0728   -3.0554    2.5585 C.2       1 <0>         0.1922
     17 N1         11.2431   -3.7444    2.7079 N.am      1 <0>        -0.5271
     18 C16        11.3640   -5.0153    2.2913 C.2       1 <0>         0.7048
     19 O2         12.4248   -5.5893    2.4453 O.2       1 <0>        -0.5397
     20 N2         10.3447   -5.6708    1.7089 N.am      1 <0>        -0.6557
     21 H1         10.4639   -6.5888    1.4191 H         1 <0>         0.4317
     22 C17         9.1544   -5.0598    1.5316 C.2       1 <0>         0.5563
     23 O3          8.2257   -5.6491    1.0101 O.2       1 <0>        -0.5005
     24 C18        12.3899   -3.0829    3.3351 C.3       1 <0>         0.3064
     25 C19        12.7582   -3.7786    4.6703 C.3       1 <0>        -0.1911
     26 C20        13.4750   -2.6431    5.4407 C.3       1 <0>         0.0778
     27 C21        12.9834   -1.3531    4.7559 C.3       1 <0>         0.0888
     28 O4         12.0442   -1.7405    3.7389 O.3       1 <0>        -0.3546
     29 C22        12.2965   -0.4490    5.7813 C.3       1 <0>         0.1408
     30 O5         11.9481    0.7920    5.1644 O.3       1 <0>        -0.7521
     31 P1         11.2077    1.9853    5.9518 P.3       1 <0>         2.2102
     32 O6          9.9047    1.4519    6.5879 O.2       1 <0>        -1.1053
     33 O7         12.1382    2.5260    7.0603 O.3       1 <0>        -1.1060
     34 O8         10.8555    3.1709    4.9211 O.3       1 <0>        -0.8963
     35 O9         14.8926   -2.7687    5.3120 O.3       1 <0>        -0.5529
     36 H2         -0.9591    1.9053    0.0259 H         1 <0>         0.1232
     37 H3          1.1563    3.1654    0.0076 H         1 <0>         0.1254
     38 H4          3.3051    1.9634   -0.0196 H         1 <0>         0.1259
     39 H5          1.2231   -1.7588   -0.0176 H         1 <0>         0.1240
     40 H6         -0.9258   -0.5567    0.0082 H         1 <0>         0.1241
     41 H7          3.5884   -1.6586   -0.5549 H         1 <0>         0.0712
     42 H8          4.4573   -0.1052   -0.5563 H         1 <0>         0.0723
     43 H9          5.6765   -1.7953   -0.6373 H         1 <0>         0.1277
     44 H10         7.8077   -2.9885   -0.3488 H         1 <0>         0.1228
     45 H11         7.3526   -2.7527    3.9058 H         1 <0>         0.1337
     46 H12         5.2274   -1.5517    3.6065 H         1 <0>         0.1354
     47 H13         9.9953   -2.0337    2.8998 H         1 <0>         0.1920
     48 H14        13.2433   -3.0720    2.6571 H         1 <0>         0.1143
     49 H15        11.8624   -4.1028    5.2000 H         1 <0>         0.0937
     50 H16        13.4322   -4.6179    4.4987 H         1 <0>         0.1083
     51 H17        13.1841   -2.6520    6.4912 H         1 <0>         0.0900
     52 H18        13.8256   -0.8300    4.3028 H         1 <0>         0.1027
     53 H19        11.3944   -0.9374    6.1498 H         1 <0>         0.0654
     54 H20        12.9749   -0.2630    6.6139 H         1 <0>         0.0747
     55 H21        10.4069    3.9250    5.3275 H         1 <0>         0.4150
     56 H22        15.2491   -3.5913    5.6746 H         1 <0>         0.3849
@<TRIPOS>BOND
     1    1    6 ar
     2    1    2 ar
     3    1   36 1
     4    2    3 ar
     5    2   37 1
     6    3    4 ar
     7    3   38 1
     8    4    5 ar
     9    4    7 1
    10    5    6 ar
    11    5   39 1
    12    6   40 1
    13    7    8 1
    14    7   41 1
    15    7   42 1
    16    8    9 1
    17    9   14 ar
    18    9   10 ar
    19   10   11 ar
    20   10   43 1
    21   11   12 ar
    22   11   44 1
    23   12   13 ar
    24   12   15 1
    25   13   14 ar
    26   13   45 1
    27   14   46 1
    28   15   22 1
    29   15   16 2
    30   16   17 1
    31   16   47 1
    32   17   18 am
    33   17   24 1
    34   18   19 2
    35   18   20 am
    36   20   21 1
    37   20   22 am
    38   22   23 2
    39   24   28 1
    40   24   25 1
    41   24   48 1
    42   25   26 1
    43   25   49 1
    44   25   50 1
    45   26   27 1
    46   26   35 1
    47   26   51 1
    48   27   28 1
    49   27   29 1
    50   27   52 1
    51   29   30 1
    52   29   53 1
    53   29   54 1
    54   30   31 1
    55   31   32 2
    56   31   33 1
    57   31   34 1
    58   34   55 1
    59   35   56 1
@<TRIPOS>MOLECULE
CHEMBL1159763__4
   55    58     0     0     0
SMALL
USER_CHARGES

@<TRIPOS>ATOM
      1 C1         -0.0167    1.3781    0.0096 C.ar      1 <0>        -0.1137
      2 C2          1.1709    2.0855    0.0021 C.ar      1 <0>        -0.1226
      3 C3          2.3773    1.4107   -0.0130 C.ar      1 <0>        -0.0923
      4 C4          2.3960    0.0285   -0.0201 C.ar      1 <0>        -0.0925
      5 C5          1.2084   -0.6789   -0.0117 C.ar      1 <0>        -0.0968
      6 C6          0.0021   -0.0041    0.0020 C.ar      1 <0>        -0.1270
      7 C7          3.7112   -0.7071   -0.0376 C.3       1 <0>         0.0999
      8 O1          4.1410   -0.9464    1.3041 O.3       1 <0>        -0.3080
      9 C8          5.3188   -1.6050    1.4666 C.ar      1 <0>         0.1310
     10 C9          6.0467   -2.0066    0.3550 C.ar      1 <0>        -0.2097
     11 C10         7.2421   -2.6756    0.5165 C.ar      1 <0>        -0.0495
     12 C11         7.7191   -2.9479    1.7977 C.ar      1 <0>        -0.0465
     13 C12         6.9859   -2.5429    2.9119 C.ar      1 <0>        -0.0579
     14 C13         5.7938   -1.8696    2.7437 C.ar      1 <0>        -0.1444
     15 C14         9.0038   -3.6675    1.9750 C.2       1 <0>        -0.2336
     16 C15        10.0728   -3.0554    2.5585 C.2       1 <0>         0.1998
     17 N1         11.2431   -3.7444    2.7079 N.am      1 <0>        -0.5328
     18 C16        11.3640   -5.0153    2.2913 C.2       1 <0>         0.7022
     19 O2         12.4248   -5.5893    2.4453 O.2       1 <0>        -0.5452
     20 N2         10.3447   -5.6708    1.7089 N.am      1 <0>        -0.6574
     21 H1         10.4639   -6.5888    1.4191 H         1 <0>         0.4280
     22 C17         9.1544   -5.0598    1.5316 C.2       1 <0>         0.5590
     23 O3          8.2257   -5.6491    1.0101 O.2       1 <0>        -0.5100
     24 C18        12.3899   -3.0829    3.3351 C.3       1 <0>         0.2964
     25 C19        12.8049   -3.8502    4.6089 C.3       1 <0>        -0.1855
     26 C20        13.1631   -2.6974    5.5861 C.3       1 <0>         0.0763
     27 C21        12.1395   -1.6172    5.1544 C.3       1 <0>         0.0844
     28 O4         12.0288   -1.7538    3.7288 O.3       1 <0>        -0.3371
     29 C22        12.6549   -0.2227    5.5158 C.3       1 <0>         0.1363
     30 O5         11.6503    0.7486    5.2171 O.3       1 <0>        -0.7509
     31 P1         11.8518    2.3255    5.4719 P.3       1 <0>         2.1265
     32 O6         12.2458    2.5664    6.9690 O.2       1 <0>        -1.1882
     33 O7         12.9897    2.8639    4.5393 O.3       1 <0>        -1.1860
     34 O8         10.5161    3.0806    5.1554 O.3       1 <0>        -1.1650
     35 O9         12.9554   -3.0903    6.9442 O.3       1 <0>        -0.5418
     36 H2         -0.9591    1.9053    0.0259 H         1 <0>         0.1216
     37 H3          1.1563    3.1654    0.0076 H         1 <0>         0.1255
     38 H4          3.3051    1.9634   -0.0196 H         1 <0>         0.1285
     39 H5          1.2231   -1.7588   -0.0176 H         1 <0>         0.1232
     40 H6         -0.9258   -0.5567    0.0082 H         1 <0>         0.1223
     41 H7          3.5884   -1.6586   -0.5549 H         1 <0>         0.0697
     42 H8          4.4573   -0.1052   -0.5563 H         1 <0>         0.0732
     43 H9          5.6765   -1.7953   -0.6373 H         1 <0>         0.1263
     44 H10         7.8077   -2.9885   -0.3488 H         1 <0>         0.1222
     45 H11         7.3526   -2.7527    3.9058 H         1 <0>         0.1329
     46 H12         5.2274   -1.5517    3.6065 H         1 <0>         0.1342
     47 H13         9.9953   -2.0337    2.8998 H         1 <0>         0.1957
     48 H14        13.2245   -3.0472    2.6349 H         1 <0>         0.1235
     49 H15        11.9738   -4.4409    4.9939 H         1 <0>         0.0895
     50 H16        13.6736   -4.4798    4.4167 H         1 <0>         0.1026
     51 H17        14.1858   -2.3540    5.4304 H         1 <0>         0.0893
     52 H18        11.1749   -1.7994    5.6280 H         1 <0>         0.0918
     53 H19        12.8903   -0.1867    6.5795 H         1 <0>         0.0613
     54 H20        13.5531   -0.0061    4.9374 H         1 <0>         0.0436
     55 H21        13.5009   -3.8376    7.2253 H         1 <0>         0.3777
@<TRIPOS>BOND
     1    1    6 ar
     2    1    2 ar
     3    1   36 1
     4    2    3 ar
     5    2   37 1
     6    3    4 ar
     7    3   38 1
     8    4    5 ar
     9    4    7 1
    10    5    6 ar
    11    5   39 1
    12    6   40 1
    13    7    8 1
    14    7   41 1
    15    7   42 1
    16    8    9 1
    17    9   14 ar
    18    9   10 ar
    19   10   11 ar
    20   10   43 1
    21   11   12 ar
    22   11   44 1
    23   12   13 ar
    24   12   15 1
    25   13   14 ar
    26   13   45 1
    27   14   46 1
    28   15   22 1
    29   15   16 2
    30   16   17 1
    31   16   47 1
    32   17   18 am
    33   17   24 1
    34   18   19 2
    35   18   20 am
    36   20   21 1
    37   20   22 am
    38   22   23 2
    39   24   28 1
    40   24   25 1
    41   24   48 1
    42   25   26 1
    43   25   49 1
    44   25   50 1
    45   26   27 1
    46   26   35 1
    47   26   51 1
    48   27   28 1
    49   27   29 1
    50   27   52 1
    51   29   30 1
    52   29   53 1
    53   29   54 1
    54   30   31 1
    55   31   32 2
    56   31   33 1
    57   31   34 1
    58   35   55 1
@<TRIPOS>MOLECULE
CHEMBL1159763__5
   56    59     0     0     0
SMALL
USER_CHARGES

@<TRIPOS>ATOM
      1 C1         -0.0167    1.3781    0.0096 C.ar      1 <0>        -0.1112
      2 C2          1.1709    2.0855    0.0021 C.ar      1 <0>        -0.1231
      3 C3          2.3773    1.4107   -0.0130 C.ar      1 <0>        -0.0941
      4 C4          2.3960    0.0285   -0.0201 C.ar      1 <0>        -0.0956
      5 C5          1.2084   -0.6789   -0.0117 C.ar      1 <0>        -0.0958
      6 C6          0.0021   -0.0041    0.0020 C.ar      1 <0>        -0.1247
      7 C7          3.7112   -0.7071   -0.0376 C.3       1 <0>         0.1006
      8 O1          4.1410   -0.9464    1.3041 O.3       1 <0>        -0.3081
      9 C8          5.3188   -1.6050    1.4666 C.ar      1 <0>         0.1339
     10 C9          6.0467   -2.0066    0.3550 C.ar      1 <0>        -0.2089
     11 C10         7.2421   -2.6756    0.5165 C.ar      1 <0>        -0.0476
     12 C11         7.7191   -2.9479    1.7977 C.ar      1 <0>        -0.0514
     13 C12         6.9859   -2.5429    2.9119 C.ar      1 <0>        -0.0601
     14 C13         5.7938   -1.8696    2.7437 C.ar      1 <0>        -0.1479
     15 C14         9.0038   -3.6675    1.9750 C.2       1 <0>        -0.2237
     16 C15        10.0728   -3.0554    2.5585 C.2       1 <0>         0.1907
     17 N1         11.2431   -3.7444    2.7079 N.am      1 <0>        -0.5363
     18 C16        11.3640   -5.0153    2.2913 C.2       1 <0>         0.7030
     19 O2         12.4248   -5.5893    2.4453 O.2       1 <0>        -0.5408
     20 N2         10.3447   -5.6708    1.7089 N.am      1 <0>        -0.6565
     21 H1         10.4639   -6.5888    1.4191 H         1 <0>         0.4310
     22 C17         9.1544   -5.0598    1.5316 C.2       1 <0>         0.5563
     23 O3          8.2257   -5.6491    1.0101 O.2       1 <0>        -0.5021
     24 C18        12.3899   -3.0829    3.3351 C.3       1 <0>         0.3018
     25 C19        12.8049   -3.8502    4.6089 C.3       1 <0>        -0.1876
     26 C20        13.1631   -2.6974    5.5861 C.3       1 <0>         0.0777
     27 C21        12.1395   -1.6172    5.1544 C.3       1 <0>         0.0824
     28 O4         12.0288   -1.7538    3.7288 O.3       1 <0>        -0.3440
     29 C22        12.6549   -0.2227    5.5158 C.3       1 <0>         0.1422
     30 O5         11.6503    0.7486    5.2171 O.3       1 <0>        -0.7540
     31 P1         11.8518    2.3255    5.4719 P.3       1 <0>         2.2110
     32 O6         12.2403    2.5631    6.9483 O.2       1 <0>        -1.1078
     33 O7         12.9740    2.8565    4.5522 O.3       1 <0>        -1.1049
     34 O8         10.4792    3.1015    5.1466 O.3       1 <0>        -0.8964
     35 O9         12.9554   -3.0903    6.9442 O.3       1 <0>        -0.5445
     36 H2         -0.9591    1.9053    0.0259 H         1 <0>         0.1233
     37 H3          1.1563    3.1654    0.0076 H         1 <0>         0.1256
     38 H4          3.3051    1.9634   -0.0196 H         1 <0>         0.1260
     39 H5          1.2231   -1.7588   -0.0176 H         1 <0>         0.1240
     40 H6         -0.9258   -0.5567    0.0082 H         1 <0>         0.1243
     41 H7          3.5884   -1.6586   -0.5549 H         1 <0>         0.0715
     42 H8          4.4573   -0.1052   -0.5563 H         1 <0>         0.0728
     43 H9          5.6765   -1.7953   -0.6373 H         1 <0>         0.1284
     44 H10         7.8077   -2.9885   -0.3488 H         1 <0>         0.1237
     45 H11         7.3526   -2.7527    3.9058 H         1 <0>         0.1314
     46 H12         5.2274   -1.5517    3.6065 H         1 <0>         0.1336
     47 H13         9.9953   -2.0337    2.8998 H         1 <0>         0.1909
     48 H14        13.2245   -3.0472    2.6349 H         1 <0>         0.1269
     49 H15        11.9738   -4.4409    4.9939 H         1 <0>         0.0931
     50 H16        13.6736   -4.4798    4.4167 H         1 <0>         0.1081
     51 H17        14.1858   -2.3540    5.4304 H         1 <0>         0.0919
     52 H18        11.1749   -1.7994    5.6280 H         1 <0>         0.0968
     53 H19        12.8903   -0.1867    6.5795 H         1 <0>         0.0796
     54 H20        13.5531   -0.0061    4.9374 H         1 <0>         0.0638
     55 H21        10.5275    4.0582    5.2785 H         1 <0>         0.4150
     56 H22        13.5009   -3.8376    7.2253 H         1 <0>         0.3856
@<TRIPOS>BOND
     1    1    6 ar
     2    1    2 ar
     3    1   36 1
     4    2    3 ar
     5    2   37 1
     6    3    4 ar
     7    3   38 1
     8    4    5 ar
     9    4    7 1
    10    5    6 ar
    11    5   39 1
    12    6   40 1
    13    7    8 1
    14    7   41 1
    15    7   42 1
    16    8    9 1
    17    9   14 ar
    18    9   10 ar
    19   10   11 ar
    20   10   43 1
    21   11   12 ar
    22   11   44 1
    23   12   13 ar
    24   12   15 1
    25   13   14 ar
    26   13   45 1
    27   14   46 1
    28   15   22 1
    29   15   16 2
    30   16   17 1
    31   16   47 1
    32   17   18 am
    33   17   24 1
    34   18   19 2
    35   18   20 am
    36   20   21 1
    37   20   22 am
    38   22   23 2
    39   24   28 1
    40   24   25 1
    41   24   48 1
    42   25   26 1
    43   25   49 1
    44   25   50 1
    45   26   27 1
    46   26   35 1
    47   26   51 1
    48   27   28 1
    49   27   29 1
    50   27   52 1
    51   29   30 1
    52   29   53 1
    53   29   54 1
    54   30   31 1
    55   31   32 2
    56   31   33 1
    57   31   34 1
    58   34   55 1
    59   35   56 1
@<TRIPOS>MOLECULE
CHEMBL1159763__6
   55    58     0     0     0
SMALL
USER_CHARGES

@<TRIPOS>ATOM
      1 C1         -0.0167    1.3781    0.0096 C.ar      1 <0>        -0.1140
      2 C2          1.1709    2.0855    0.0021 C.ar      1 <0>        -0.1227
      3 C3          2.3773    1.4107   -0.0130 C.ar      1 <0>        -0.0922
      4 C4          2.3960    0.0285   -0.0201 C.ar      1 <0>        -0.0921
      5 C5          1.2084   -0.6789   -0.0117 C.ar      1 <0>        -0.0967
      6 C6          0.0021   -0.0041    0.0020 C.ar      1 <0>        -0.1271
      7 C7          3.7112   -0.7071   -0.0376 C.3       1 <0>         0.1000
      8 O1          4.1410   -0.9464    1.3041 O.3       1 <0>        -0.3074
      9 C8          5.3188   -1.6050    1.4666 C.ar      1 <0>         0.1313
     10 C9          6.0467   -2.0066    0.3550 C.ar      1 <0>        -0.2114
     11 C10         7.2421   -2.6756    0.5165 C.ar      1 <0>        -0.0505
     12 C11         7.7191   -2.9479    1.7977 C.ar      1 <0>        -0.0490
     13 C12         6.9859   -2.5429    2.9119 C.ar      1 <0>        -0.0547
     14 C13         5.7938   -1.8696    2.7437 C.ar      1 <0>        -0.1422
     15 C14         9.0038   -3.6675    1.9750 C.2       1 <0>        -0.2310
     16 C15        10.0728   -3.0554    2.5585 C.2       1 <0>         0.2025
     17 N1         11.2431   -3.7444    2.7079 N.am      1 <0>        -0.5226
     18 C16        11.3640   -5.0153    2.2913 C.2       1 <0>         0.7047
     19 O2         12.4248   -5.5893    2.4453 O.2       1 <0>        -0.5456
     20 N2         10.3447   -5.6708    1.7089 N.am      1 <0>        -0.6565
     21 H1         10.4639   -6.5888    1.4191 H         1 <0>         0.4286
     22 C17         9.1544   -5.0598    1.5316 C.2       1 <0>         0.5591
     23 O3          8.2257   -5.6491    1.0101 O.2       1 <0>        -0.5081
     24 C18        12.3899   -3.0829    3.3351 C.3       1 <0>         0.2985
     25 C19        12.7582   -3.7786    4.6703 C.3       1 <0>        -0.1920
     26 C20        13.4750   -2.6431    5.4407 C.3       1 <0>         0.0806
     27 C21        12.9834   -1.3531    4.7559 C.3       1 <0>         0.0857
     28 O4         12.0442   -1.7405    3.7389 O.3       1 <0>        -0.3468
     29 C22        12.2965   -0.4490    5.7813 C.3       1 <0>         0.1458
     30 O5         11.9481    0.7920    5.1644 O.3       1 <0>        -0.7569
     31 P1         11.2077    1.9853    5.9518 P.3       1 <0>         2.1299
     32 O6          9.8865    1.4444    6.5969 O.2       1 <0>        -1.1873
     33 O7         12.1513    2.5336    7.0758 O.3       1 <0>        -1.1896
     34 O8         10.8649    3.1390    4.9488 O.3       1 <0>        -1.1684
     35 O9         13.0936   -2.6548    6.8179 O.3       1 <0>        -0.5363
     36 H2         -0.9591    1.9053    0.0259 H         1 <0>         0.1214
     37 H3          1.1563    3.1654    0.0076 H         1 <0>         0.1253
     38 H4          3.3051    1.9634   -0.0196 H         1 <0>         0.1284
     39 H5          1.2231   -1.7588   -0.0176 H         1 <0>         0.1232
     40 H6         -0.9258   -0.5567    0.0082 H         1 <0>         0.1221
     41 H7          3.5884   -1.6586   -0.5549 H         1 <0>         0.0693
     42 H8          4.4573   -0.1052   -0.5563 H         1 <0>         0.0726
     43 H9          5.6765   -1.7953   -0.6373 H         1 <0>         0.1256
     44 H10         7.8077   -2.9885   -0.3488 H         1 <0>         0.1213
     45 H11         7.3526   -2.7527    3.9058 H         1 <0>         0.1354
     46 H12         5.2274   -1.5517    3.6065 H         1 <0>         0.1360
     47 H13         9.9953   -2.0337    2.8998 H         1 <0>         0.1971
     48 H14        13.2433   -3.0720    2.6571 H         1 <0>         0.1098
     49 H15        11.8624   -4.1028    5.2000 H         1 <0>         0.0933
     50 H16        13.4322   -4.6179    4.4987 H         1 <0>         0.0996
     51 H17        14.5563   -2.7389    5.3425 H         1 <0>         0.0801
     52 H18        13.8256   -0.8300    4.3028 H         1 <0>         0.0948
     53 H19        11.3944   -0.9374    6.1498 H         1 <0>         0.0483
     54 H20        12.9749   -0.2630    6.6139 H         1 <0>         0.0578
     55 H21        13.3268   -3.4695    7.2837 H         1 <0>         0.3728
@<TRIPOS>BOND
     1    1    6 ar
     2    1    2 ar
     3    1   36 1
     4    2    3 ar
     5    2   37 1
     6    3    4 ar
     7    3   38 1
     8    4    5 ar
     9    4    7 1
    10    5    6 ar
    11    5   39 1
    12    6   40 1
    13    7    8 1
    14    7   41 1
    15    7   42 1
    16    8    9 1
    17    9   14 ar
    18    9   10 ar
    19   10   11 ar
    20   10   43 1
    21   11   12 ar
    22   11   44 1
    23   12   13 ar
    24   12   15 1
    25   13   14 ar
    26   13   45 1
    27   14   46 1
    28   15   22 1
    29   15   16 2
    30   16   17 1
    31   16   47 1
    32   17   18 am
    33   17   24 1
    34   18   19 2
    35   18   20 am
    36   20   21 1
    37   20   22 am
    38   22   23 2
    39   24   28 1
    40   24   25 1
    41   24   48 1
    42   25   26 1
    43   25   49 1
    44   25   50 1
    45   26   27 1
    46   26   35 1
    47   26   51 1
    48   27   28 1
    49   27   29 1
    50   27   52 1
    51   29   30 1
    52   29   53 1
    53   29   54 1
    54   30   31 1
    55   31   32 2
    56   31   33 1
    57   31   34 1
    58   35   55 1
@<TRIPOS>MOLECULE
CHEMBL1159763__7
   56    59     0     0     0
SMALL
USER_CHARGES

@<TRIPOS>ATOM
      1 C1         -0.0167    1.3781    0.0096 C.ar      1 <0>        -0.1114
      2 C2          1.1709    2.0855    0.0021 C.ar      1 <0>        -0.1231
      3 C3          2.3773    1.4107   -0.0130 C.ar      1 <0>        -0.0939
      4 C4          2.3960    0.0285   -0.0201 C.ar      1 <0>        -0.0953
      5 C5          1.2084   -0.6789   -0.0117 C.ar      1 <0>        -0.0957
      6 C6          0.0021   -0.0041    0.0020 C.ar      1 <0>        -0.1248
      7 C7          3.7112   -0.7071   -0.0376 C.3       1 <0>         0.1007
      8 O1          4.1410   -0.9464    1.3041 O.3       1 <0>        -0.3075
      9 C8          5.3188   -1.6050    1.4666 C.ar      1 <0>         0.1342
     10 C9          6.0467   -2.0066    0.3550 C.ar      1 <0>        -0.2104
     11 C10         7.2421   -2.6756    0.5165 C.ar      1 <0>        -0.0487
     12 C11         7.7191   -2.9479    1.7977 C.ar      1 <0>        -0.0539
     13 C12         6.9859   -2.5429    2.9119 C.ar      1 <0>        -0.0572
     14 C13         5.7938   -1.8696    2.7437 C.ar      1 <0>        -0.1458
     15 C14         9.0038   -3.6675    1.9750 C.2       1 <0>        -0.2210
     16 C15        10.0728   -3.0554    2.5585 C.2       1 <0>         0.1931
     17 N1         11.2431   -3.7444    2.7079 N.am      1 <0>        -0.5260
     18 C16        11.3640   -5.0153    2.2913 C.2       1 <0>         0.7053
     19 O2         12.4248   -5.5893    2.4453 O.2       1 <0>        -0.5411
     20 N2         10.3447   -5.6708    1.7089 N.am      1 <0>        -0.6557
     21 H1         10.4639   -6.5888    1.4191 H         1 <0>         0.4317
     22 C17         9.1544   -5.0598    1.5316 C.2       1 <0>         0.5564
     23 O3          8.2257   -5.6491    1.0101 O.2       1 <0>        -0.5002
     24 C18        12.3899   -3.0829    3.3351 C.3       1 <0>         0.3041
     25 C19        12.7582   -3.7786    4.6703 C.3       1 <0>        -0.1944
     26 C20        13.4750   -2.6431    5.4407 C.3       1 <0>         0.0811
     27 C21        12.9834   -1.3531    4.7559 C.3       1 <0>         0.0864
     28 O4         12.0442   -1.7405    3.7389 O.3       1 <0>        -0.3543
     29 C22        12.2965   -0.4490    5.7813 C.3       1 <0>         0.1504
     30 O5         11.9481    0.7920    5.1644 O.3       1 <0>        -0.7591
     31 P1         11.2077    1.9853    5.9518 P.3       1 <0>         2.2113
     32 O6          9.9047    1.4519    6.5879 O.2       1 <0>        -1.1065
     33 O7         12.1382    2.5260    7.0603 O.3       1 <0>        -1.1076
     34 O8         10.8555    3.1709    4.9211 O.3       1 <0>        -0.8975
     35 O9         13.0936   -2.6548    6.8179 O.3       1 <0>        -0.5440
     36 H2         -0.9591    1.9053    0.0259 H         1 <0>         0.1231
     37 H3          1.1563    3.1654    0.0076 H         1 <0>         0.1254
     38 H4          3.3051    1.9634   -0.0196 H         1 <0>         0.1260
     39 H5          1.2231   -1.7588   -0.0176 H         1 <0>         0.1240
     40 H6         -0.9258   -0.5567    0.0082 H         1 <0>         0.1241
     41 H7          3.5884   -1.6586   -0.5549 H         1 <0>         0.0711
     42 H8          4.4573   -0.1052   -0.5563 H         1 <0>         0.0723
     43 H9          5.6765   -1.7953   -0.6373 H         1 <0>         0.1277
     44 H10         7.8077   -2.9885   -0.3488 H         1 <0>         0.1227
     45 H11         7.3526   -2.7527    3.9058 H         1 <0>         0.1339
     46 H12         5.2274   -1.5517    3.6065 H         1 <0>         0.1355
     47 H13         9.9953   -2.0337    2.8998 H         1 <0>         0.1921
     48 H14        13.2433   -3.0720    2.6571 H         1 <0>         0.1132
     49 H15        11.8624   -4.1028    5.2000 H         1 <0>         0.0961
     50 H16        13.4322   -4.6179    4.4987 H         1 <0>         0.1053
     51 H17        14.5563   -2.7389    5.3425 H         1 <0>         0.0864
     52 H18        13.8256   -0.8300    4.3028 H         1 <0>         0.0999
     53 H19        11.3944   -0.9374    6.1498 H         1 <0>         0.0676
     54 H20        12.9749   -0.2630    6.6139 H         1 <0>         0.0772
     55 H21        10.4069    3.9250    5.3275 H         1 <0>         0.4143
     56 H22        13.3268   -3.4695    7.2837 H         1 <0>         0.3824
@<TRIPOS>BOND
     1    1    6 ar
     2    1    2 ar
     3    1   36 1
     4    2    3 ar
     5    2   37 1
     6    3    4 ar
     7    3   38 1
     8    4    5 ar
     9    4    7 1
    10    5    6 ar
    11    5   39 1
    12    6   40 1
    13    7    8 1
    14    7   41 1
    15    7   42 1
    16    8    9 1
    17    9   14 ar
    18    9   10 ar
    19   10   11 ar
    20   10   43 1
    21   11   12 ar
    22   11   44 1
    23   12   13 ar
    24   12   15 1
    25   13   14 ar
    26   13   45 1
    27   14   46 1
    28   15   22 1
    29   15   16 2
    30   16   17 1
    31   16   47 1
    32   17   18 am
    33   17   24 1
    34   18   19 2
    35   18   20 am
    36   20   21 1
    37   20   22 am
    38   22   23 2
    39   24   28 1
    40   24   25 1
    41   24   48 1
    42   25   26 1
    43   25   49 1
    44   25   50 1
    45   26   27 1
    46   26   35 1
    47   26   51 1
    48   27   28 1
    49   27   29 1
    50   27   52 1
    51   29   30 1
    52   29   53 1
    53   29   54 1
    54   30   31 1
    55   31   32 2
    56   31   33 1
    57   31   34 1
    58   34   55 1
    59   35   56 1
@<TRIPOS>MOLECULE
CHEMBL1159763__8
   55    58     0     0     0
SMALL
USER_CHARGES

@<TRIPOS>ATOM
      1 C1         -0.0167    1.3781    0.0096 C.ar      1 <0>        -0.1126
      2 C2          1.1709    2.0855    0.0021 C.ar      1 <0>        -0.1240
      3 C3          2.3773    1.4107   -0.0130 C.ar      1 <0>        -0.0948
      4 C4          2.3960    0.0285   -0.0201 C.ar      1 <0>        -0.0931
      5 C5          1.2084   -0.6789   -0.0117 C.ar      1 <0>        -0.0955
      6 C6          0.0021   -0.0041    0.0020 C.ar      1 <0>        -0.1246
      7 C7          3.7112   -0.7071   -0.0376 C.3       1 <0>         0.0995
      8 O1          4.1410   -0.9464    1.3041 O.3       1 <0>        -0.3105
      9 C8          5.3188   -1.6050    1.4666 C.ar      1 <0>         0.1273
     10 C9          6.0467   -2.0066    0.3550 C.ar      1 <0>        -0.2064
     11 C10         7.2421   -2.6756    0.5165 C.ar      1 <0>        -0.0469
     12 C11         7.7191   -2.9479    1.7977 C.ar      1 <0>        -0.0394
     13 C12         6.9859   -2.5429    2.9119 C.ar      1 <0>        -0.0662
     14 C13         5.7938   -1.8696    2.7437 C.ar      1 <0>        -0.1514
     15 C14         9.0038   -3.6675    1.9750 C.2       1 <0>        -0.2360
     16 C15        10.0728   -3.0554    2.5585 C.2       1 <0>         0.1962
     17 N1         11.2431   -3.7444    2.7079 N.am      1 <0>        -0.5212
     18 C16        11.3640   -5.0153    2.2913 C.2       1 <0>         0.6847
     19 O2         12.4248   -5.5893    2.4453 O.2       1 <0>        -0.4832
     20 N2         10.3447   -5.6708    1.7089 N.am      1 <0>        -0.6580
     21 H1         10.4639   -6.5888    1.4191 H         1 <0>         0.4312
     22 C17         9.1544   -5.0598    1.5316 C.2       1 <0>         0.5608
     23 O3          8.2257   -5.6491    1.0101 O.2       1 <0>        -0.5142
     24 C18        12.3899   -3.0829    3.3351 C.3       1 <0>         0.2897
     25 C19        12.7935   -3.8204    4.6311 C.3       1 <0>        -0.1930
     26 C20        14.3364   -3.7394    4.6442 C.3       1 <0>         0.0836
     27 C21        14.6825   -2.9625    3.3546 C.3       1 <0>         0.0869
     28 O4         13.5515   -3.1739    2.4817 O.3       1 <0>        -0.3330
     29 C22        15.9569   -3.5236    2.7206 C.3       1 <0>         0.1482
     30 O5         16.3237   -2.7201    1.5973 O.3       1 <0>        -0.7585
     31 P1         17.6191   -3.0207    0.6898 P.3       1 <0>         2.1318
     32 O6         18.8917   -3.0852    1.6012 O.2       1 <0>        -1.1909
     33 O7         17.4342   -4.3910   -0.0467 O.3       1 <0>        -1.1872
     34 O8         17.7920   -1.8783   -0.3683 O.3       1 <0>        -1.1701
     35 O9         14.9069   -5.0491    4.6081 O.3       1 <0>        -0.5298
     36 H2         -0.9591    1.9053    0.0259 H         1 <0>         0.1225
     37 H3          1.1563    3.1654    0.0076 H         1 <0>         0.1246
     38 H4          3.3051    1.9634   -0.0196 H         1 <0>         0.1257
     39 H5          1.2231   -1.7588   -0.0176 H         1 <0>         0.1248
     40 H6         -0.9258   -0.5567    0.0082 H         1 <0>         0.1240
     41 H7          3.5884   -1.6586   -0.5549 H         1 <0>         0.0723
     42 H8          4.4573   -0.1052   -0.5563 H         1 <0>         0.0731
     43 H9          5.6765   -1.7953   -0.6373 H         1 <0>         0.1279
     44 H10         7.8077   -2.9885   -0.3488 H         1 <0>         0.1271
     45 H11         7.3526   -2.7527    3.9058 H         1 <0>         0.1309
     46 H12         5.2274   -1.5517    3.6065 H         1 <0>         0.1303
     47 H13         9.9953   -2.0337    2.8998 H         1 <0>         0.1788
     48 H14        12.1559   -2.0397    3.5474 H         1 <0>         0.1130
     49 H15        12.3772   -3.3160    5.5031 H         1 <0>         0.0867
     50 H16        12.4659   -4.8594    4.5971 H         1 <0>         0.0971
     51 H17        14.6829   -3.1950    5.5227 H         1 <0>         0.0763
     52 H18        14.8012   -1.9009    3.5715 H         1 <0>         0.0907
     53 H19        16.7630   -3.5123    3.4541 H         1 <0>         0.0531
     54 H20        15.7788   -4.5476    2.3921 H         1 <0>         0.0549
     55 H21        14.6715   -5.6017    5.3660 H         1 <0>         0.3671
@<TRIPOS>BOND
     1    1    6 ar
     2    1    2 ar
     3    1   36 1
     4    2    3 ar
     5    2   37 1
     6    3    4 ar
     7    3   38 1
     8    4    5 ar
     9    4    7 1
    10    5    6 ar
    11    5   39 1
    12    6   40 1
    13    7    8 1
    14    7   41 1
    15    7   42 1
    16    8    9 1
    17    9   14 ar
    18    9   10 ar
    19   10   11 ar
    20   10   43 1
    21   11   12 ar
    22   11   44 1
    23   12   13 ar
    24   12   15 1
    25   13   14 ar
    26   13   45 1
    27   14   46 1
    28   15   22 1
    29   15   16 2
    30   16   17 1
    31   16   47 1
    32   17   18 am
    33   17   24 1
    34   18   19 2
    35   18   20 am
    36   20   21 1
    37   20   22 am
    38   22   23 2
    39   24   28 1
    40   24   25 1
    41   24   48 1
    42   25   26 1
    43   25   49 1
    44   25   50 1
    45   26   27 1
    46   26   35 1
    47   26   51 1
    48   27   28 1
    49   27   29 1
    50   27   52 1
    51   29   30 1
    52   29   53 1
    53   29   54 1
    54   30   31 1
    55   31   32 2
    56   31   33 1
    57   31   34 1
    58   35   55 1
@<TRIPOS>MOLECULE
CHEMBL1159763__9
   56    59     0     0     0
SMALL
USER_CHARGES

@<TRIPOS>ATOM
      1 C1         -0.0167    1.3781    0.0096 C.ar      1 <0>        -0.1107
      2 C2          1.1709    2.0855    0.0021 C.ar      1 <0>        -0.1237
      3 C3          2.3773    1.4107   -0.0130 C.ar      1 <0>        -0.0951
      4 C4          2.3960    0.0285   -0.0201 C.ar      1 <0>        -0.0960
      5 C5          1.2084   -0.6789   -0.0117 C.ar      1 <0>        -0.0952
      6 C6          0.0021   -0.0041    0.0020 C.ar      1 <0>        -0.1237
      7 C7          3.7112   -0.7071   -0.0376 C.3       1 <0>         0.1005
      8 O1          4.1410   -0.9464    1.3041 O.3       1 <0>        -0.3091
      9 C8          5.3188   -1.6050    1.4666 C.ar      1 <0>         0.1327
     10 C9          6.0467   -2.0066    0.3550 C.ar      1 <0>        -0.2072
     11 C10         7.2421   -2.6756    0.5165 C.ar      1 <0>        -0.0462
     12 C11         7.7191   -2.9479    1.7977 C.ar      1 <0>        -0.0495
     13 C12         6.9859   -2.5429    2.9119 C.ar      1 <0>        -0.0641
     14 C13         5.7938   -1.8696    2.7437 C.ar      1 <0>        -0.1512
     15 C14         9.0038   -3.6675    1.9750 C.2       1 <0>        -0.2199
     16 C15        10.0728   -3.0554    2.5585 C.2       1 <0>         0.1851
     17 N1         11.2431   -3.7444    2.7079 N.am      1 <0>        -0.5242
     18 C16        11.3640   -5.0153    2.2913 C.2       1 <0>         0.6887
     19 O2         12.4248   -5.5893    2.4453 O.2       1 <0>        -0.4932
     20 N2         10.3447   -5.6708    1.7089 N.am      1 <0>        -0.6583
     21 H1         10.4639   -6.5888    1.4191 H         1 <0>         0.4323
     22 C17         9.1544   -5.0598    1.5316 C.2       1 <0>         0.5573
     23 O3          8.2257   -5.6491    1.0101 O.2       1 <0>        -0.5048
     24 C18        12.3899   -3.0829    3.3351 C.3       1 <0>         0.2960
     25 C19        12.7935   -3.8204    4.6311 C.3       1 <0>        -0.1954
     26 C20        14.3364   -3.7394    4.6442 C.3       1 <0>         0.0847
     27 C21        14.6825   -2.9625    3.3546 C.3       1 <0>         0.0864
     28 O4         13.5515   -3.1739    2.4817 O.3       1 <0>        -0.3403
     29 C22        15.9569   -3.5236    2.7206 C.3       1 <0>         0.1531
     30 O5         16.3237   -2.7201    1.5973 O.3       1 <0>        -0.7603
     31 P1         17.6191   -3.0207    0.6898 P.3       1 <0>         2.2120
     32 O6         18.8741   -3.0843    1.5886 O.2       1 <0>        -1.1097
     33 O7         17.4368   -4.3721   -0.0365 O.3       1 <0>        -1.1052
     34 O8         17.7968   -1.8467   -0.3976 O.3       1 <0>        -0.8979
     35 O9         14.9069   -5.0491    4.6081 O.3       1 <0>        -0.5369
     36 H2         -0.9591    1.9053    0.0259 H         1 <0>         0.1238
     37 H3          1.1563    3.1654    0.0076 H         1 <0>         0.1252
     38 H4          3.3051    1.9634   -0.0196 H         1 <0>         0.1249
     39 H5          1.2231   -1.7588   -0.0176 H         1 <0>         0.1248
     40 H6         -0.9258   -0.5567    0.0082 H         1 <0>         0.1251
     41 H7          3.5884   -1.6586   -0.5549 H         1 <0>         0.0727
     42 H8          4.4573   -0.1052   -0.5563 H         1 <0>         0.0729
     43 H9          5.6765   -1.7953   -0.6373 H         1 <0>         0.1291
     44 H10         7.8077   -2.9885   -0.3488 H         1 <0>         0.1260
     45 H11         7.3526   -2.7527    3.9058 H         1 <0>         0.1310
     46 H12         5.2274   -1.5517    3.6065 H         1 <0>         0.1321
     47 H13         9.9953   -2.0337    2.8998 H         1 <0>         0.1798
     48 H14        12.1559   -2.0397    3.5474 H         1 <0>         0.1159
     49 H15        12.3772   -3.3160    5.5031 H         1 <0>         0.0919
     50 H16        12.4659   -4.8594    4.5971 H         1 <0>         0.1009
     51 H17        14.6829   -3.1950    5.5227 H         1 <0>         0.0813
     52 H18        14.8012   -1.9009    3.5715 H         1 <0>         0.0951
     53 H19        16.7630   -3.5123    3.4541 H         1 <0>         0.0720
     54 H20        15.7788   -4.5476    2.3921 H         1 <0>         0.0743
     55 H21        18.5596   -1.9626   -0.9804 H         1 <0>         0.4140
     56 H22        14.6715   -5.6017    5.3660 H         1 <0>         0.3764
@<TRIPOS>BOND
     1    1    6 ar
     2    1    2 ar
     3    1   36 1
     4    2    3 ar
     5    2   37 1
     6    3    4 ar
     7    3   38 1
     8    4    5 ar
     9    4    7 1
    10    5    6 ar
    11    5   39 1
    12    6   40 1
    13    7    8 1
    14    7   41 1
    15    7   42 1
    16    8    9 1
    17    9   14 ar
    18    9   10 ar
    19   10   11 ar
    20   10   43 1
    21   11   12 ar
    22   11   44 1
    23   12   13 ar
    24   12   15 1
    25   13   14 ar
    26   13   45 1
    27   14   46 1
    28   15   22 1
    29   15   16 2
    30   16   17 1
    31   16   47 1
    32   17   18 am
    33   17   24 1
    34   18   19 2
    35   18   20 am
    36   20   21 1
    37   20   22 am
    38   22   23 2
    39   24   28 1
    40   24   25 1
    41   24   48 1
    42   25   26 1
    43   25   49 1
    44   25   50 1
    45   26   27 1
    46   26   35 1
    47   26   51 1
    48   27   28 1
    49   27   29 1
    50   27   52 1
    51   29   30 1
    52   29   53 1
    53   29   54 1
    54   30   31 1
    55   31   32 2
    56   31   33 1
    57   31   34 1
    58   34   55 1
    59   35   56 1
@<TRIPOS>MOLECULE
CHEMBL1159763__10
   55    58     0     0     0
SMALL
USER_CHARGES

@<TRIPOS>ATOM
      1 C1         -0.0167    1.3781    0.0096 C.ar      1 <0>        -0.1127
      2 C2          1.1709    2.0855    0.0021 C.ar      1 <0>        -0.1237
      3 C3          2.3773    1.4107   -0.0130 C.ar      1 <0>        -0.0944
      4 C4          2.3960    0.0285   -0.0201 C.ar      1 <0>        -0.0932
      5 C5          1.2084   -0.6789   -0.0117 C.ar      1 <0>        -0.0958
      6 C6          0.0021   -0.0041    0.0020 C.ar      1 <0>        -0.1250
      7 C7          3.7112   -0.7071   -0.0376 C.3       1 <0>         0.0995
      8 O1          4.1410   -0.9464    1.3041 O.3       1 <0>        -0.3103
      9 C8          5.3188   -1.6050    1.4666 C.ar      1 <0>         0.1281
     10 C9          6.0467   -2.0066    0.3550 C.ar      1 <0>        -0.2065
     11 C10         7.2421   -2.6756    0.5165 C.ar      1 <0>        -0.0465
     12 C11         7.7191   -2.9479    1.7977 C.ar      1 <0>        -0.0410
     13 C12         6.9859   -2.5429    2.9119 C.ar      1 <0>        -0.0655
     14 C13         5.7938   -1.8696    2.7437 C.ar      1 <0>        -0.1511
     15 C14         9.0038   -3.6675    1.9750 C.2       1 <0>        -0.2351
     16 C15        10.0728   -3.0554    2.5585 C.2       1 <0>         0.1979
     17 N1         11.2431   -3.7444    2.7079 N.am      1 <0>        -0.5219
     18 C16        11.3640   -5.0153    2.2913 C.2       1 <0>         0.6924
     19 O2         12.4248   -5.5893    2.4453 O.2       1 <0>        -0.5054
     20 N2         10.3447   -5.6708    1.7089 N.am      1 <0>        -0.6581
     21 H1         10.4639   -6.5888    1.4191 H         1 <0>         0.4297
     22 C17         9.1544   -5.0598    1.5316 C.2       1 <0>         0.5610
     23 O3          8.2257   -5.6491    1.0101 O.2       1 <0>        -0.5130
     24 C18        12.3899   -3.0829    3.3351 C.3       1 <0>         0.2935
     25 C19        12.7883   -3.8188    4.6392 C.3       1 <0>        -0.1975
     26 C20        14.2845   -3.4199    4.7576 C.3       1 <0>         0.0827
     27 C21        14.7234   -3.3518    3.2790 C.3       1 <0>         0.0942
     28 O4         13.5444   -3.1743    2.4853 O.3       1 <0>        -0.3372
     29 C22        15.6710   -2.1683    3.0729 C.3       1 <0>         0.1261
     30 O5         16.1636   -2.1806    1.7315 O.3       1 <0>        -0.7486
     31 P1         17.1882   -1.0762    1.1636 P.3       1 <0>         2.1279
     32 O6         16.5893    0.3545    1.3845 O.2       1 <0>        -1.1885
     33 O7         18.5546   -1.1930    1.9211 O.3       1 <0>        -1.1877
     34 O8         17.4179   -1.3155   -0.3676 O.3       1 <0>        -1.1670
     35 O9         15.0233   -4.4200    5.4618 O.3       1 <0>        -0.5423
     36 H2         -0.9591    1.9053    0.0259 H         1 <0>         0.1224
     37 H3          1.1563    3.1654    0.0076 H         1 <0>         0.1249
     38 H4          3.3051    1.9634   -0.0196 H         1 <0>         0.1262
     39 H5          1.2231   -1.7588   -0.0176 H         1 <0>         0.1244
     40 H6         -0.9258   -0.5567    0.0082 H         1 <0>         0.1237
     41 H7          3.5884   -1.6586   -0.5549 H         1 <0>         0.0720
     42 H8          4.4573   -0.1052   -0.5563 H         1 <0>         0.0736
     43 H9          5.6765   -1.7953   -0.6373 H         1 <0>         0.1280
     44 H10         7.8077   -2.9885   -0.3488 H         1 <0>         0.1267
     45 H11         7.3526   -2.7527    3.9058 H         1 <0>         0.1311
     46 H12         5.2274   -1.5517    3.6065 H         1 <0>         0.1306
     47 H13         9.9953   -2.0337    2.8998 H         1 <0>         0.1816
     48 H14        12.1559   -2.0391    3.5444 H         1 <0>         0.1224
     49 H15        12.2148   -3.4497    5.4895 H         1 <0>         0.0900
     50 H16        12.6767   -4.8977    4.5311 H         1 <0>         0.1046
     51 H17        14.3898   -2.4475    5.2387 H         1 <0>         0.0852
     52 H18        15.2220   -4.2795    2.9982 H         1 <0>         0.1019
     53 H19        15.1342   -1.2372    3.2543 H         1 <0>         0.0398
     54 H20        16.5071   -2.2470    3.7677 H         1 <0>         0.0511
     55 H21        14.7251   -4.5623    6.3707 H         1 <0>         0.3744
@<TRIPOS>BOND
     1    1    6 ar
     2    1    2 ar
     3    1   36 1
     4    2    3 ar
     5    2   37 1
     6    3    4 ar
     7    3   38 1
     8    4    5 ar
     9    4    7 1
    10    5    6 ar
    11    5   39 1
    12    6   40 1
    13    7    8 1
    14    7   41 1
    15    7   42 1
    16    8    9 1
    17    9   14 ar
    18    9   10 ar
    19   10   11 ar
    20   10   43 1
    21   11   12 ar
    22   11   44 1
    23   12   13 ar
    24   12   15 1
    25   13   14 ar
    26   13   45 1
    27   14   46 1
    28   15   22 1
    29   15   16 2
    30   16   17 1
    31   16   47 1
    32   17   18 am
    33   17   24 1
    34   18   19 2
    35   18   20 am
    36   20   21 1
    37   20   22 am
    38   22   23 2
    39   24   28 1
    40   24   25 1
    41   24   48 1
    42   25   26 1
    43   25   49 1
    44   25   50 1
    45   26   27 1
    46   26   35 1
    47   26   51 1
    48   27   28 1
    49   27   29 1
    50   27   52 1
    51   29   30 1
    52   29   53 1
    53   29   54 1
    54   30   31 1
    55   31   32 2
    56   31   33 1
    57   31   34 1
    58   35   55 1
@<TRIPOS>MOLECULE
CHEMBL1159763__11
   56    59     0     0     0
SMALL
USER_CHARGES

@<TRIPOS>ATOM
      1 C1         -0.0167    1.3781    0.0096 C.ar      1 <0>        -0.1107
      2 C2          1.1709    2.0855    0.0021 C.ar      1 <0>        -0.1235
      3 C3          2.3773    1.4107   -0.0130 C.ar      1 <0>        -0.0948
      4 C4          2.3960    0.0285   -0.0201 C.ar      1 <0>        -0.0961
      5 C5          1.2084   -0.6789   -0.0117 C.ar      1 <0>        -0.0954
      6 C6          0.0021   -0.0041    0.0020 C.ar      1 <0>        -0.1240
      7 C7          3.7112   -0.7071   -0.0376 C.3       1 <0>         0.1004
      8 O1          4.1410   -0.9464    1.3041 O.3       1 <0>        -0.3089
      9 C8          5.3188   -1.6050    1.4666 C.ar      1 <0>         0.1334
     10 C9          6.0467   -2.0066    0.3550 C.ar      1 <0>        -0.2073
     11 C10         7.2421   -2.6756    0.5165 C.ar      1 <0>        -0.0459
     12 C11         7.7191   -2.9479    1.7977 C.ar      1 <0>        -0.0509
     13 C12         6.9859   -2.5429    2.9119 C.ar      1 <0>        -0.0635
     14 C13         5.7938   -1.8696    2.7437 C.ar      1 <0>        -0.1509
     15 C14         9.0038   -3.6675    1.9750 C.2       1 <0>        -0.2190
     16 C15        10.0728   -3.0554    2.5585 C.2       1 <0>         0.1862
     17 N1         11.2431   -3.7444    2.7079 N.am      1 <0>        -0.5250
     18 C16        11.3640   -5.0153    2.2913 C.2       1 <0>         0.6951
     19 O2         12.4248   -5.5893    2.4453 O.2       1 <0>        -0.5122
     20 N2         10.3447   -5.6708    1.7089 N.am      1 <0>        -0.6583
     21 H1         10.4639   -6.5888    1.4191 H         1 <0>         0.4312
     22 C17         9.1544   -5.0598    1.5316 C.2       1 <0>         0.5573
     23 O3          8.2257   -5.6491    1.0101 O.2       1 <0>        -0.5037
     24 C18        12.3899   -3.0829    3.3351 C.3       1 <0>         0.2982
     25 C19        12.7883   -3.8188    4.6392 C.3       1 <0>        -0.1995
     26 C20        14.2845   -3.4199    4.7576 C.3       1 <0>         0.0840
     27 C21        14.7234   -3.3518    3.2790 C.3       1 <0>         0.0927
     28 O4         13.5444   -3.1743    2.4853 O.3       1 <0>        -0.3442
     29 C22        15.6710   -2.1683    3.0729 C.3       1 <0>         0.1311
     30 O5         16.1636   -2.1806    1.7315 O.3       1 <0>        -0.7513
     31 P1         17.1882   -1.0762    1.1636 P.3       1 <0>         2.2118
     32 O6         16.5975    0.3347    1.3814 O.2       1 <0>        -1.1087
     33 O7         18.5357   -1.1914    1.9107 O.3       1 <0>        -1.1068
     34 O8         17.4243   -1.3221   -0.4099 O.3       1 <0>        -0.8964
     35 O9         15.0233   -4.4200    5.4618 O.3       1 <0>        -0.5438
     36 H2         -0.9591    1.9053    0.0259 H         1 <0>         0.1237
     37 H3          1.1563    3.1654    0.0076 H         1 <0>         0.1254
     38 H4          3.3051    1.9634   -0.0196 H         1 <0>         0.1253
     39 H5          1.2231   -1.7588   -0.0176 H         1 <0>         0.1245
     40 H6         -0.9258   -0.5567    0.0082 H         1 <0>         0.1249
     41 H7          3.5884   -1.6586   -0.5549 H         1 <0>         0.0725
     42 H8          4.4573   -0.1052   -0.5563 H         1 <0>         0.0732
     43 H9          5.6765   -1.7953   -0.6373 H         1 <0>         0.1292
     44 H10         7.8077   -2.9885   -0.3488 H         1 <0>         0.1256
     45 H11         7.3526   -2.7527    3.9058 H         1 <0>         0.1312
     46 H12         5.2274   -1.5517    3.6065 H         1 <0>         0.1324
     47 H13         9.9953   -2.0337    2.8998 H         1 <0>         0.1822
     48 H14        12.1559   -2.0391    3.5444 H         1 <0>         0.1243
     49 H15        12.2148   -3.4497    5.4895 H         1 <0>         0.0956
     50 H16        12.6767   -4.8977    4.5311 H         1 <0>         0.1081
     51 H17        14.3898   -2.4475    5.2387 H         1 <0>         0.0870
     52 H18        15.2220   -4.2795    2.9982 H         1 <0>         0.1073
     53 H19        15.1342   -1.2372    3.2543 H         1 <0>         0.0594
     54 H20        16.5071   -2.2470    3.7677 H         1 <0>         0.0708
     55 H21        18.0325   -0.6918   -0.8196 H         1 <0>         0.4142
     56 H22        14.7251   -4.5623    6.3707 H         1 <0>         0.3822
@<TRIPOS>BOND
     1    1    6 ar
     2    1    2 ar
     3    1   36 1
     4    2    3 ar
     5    2   37 1
     6    3    4 ar
     7    3   38 1
     8    4    5 ar
     9    4    7 1
    10    5    6 ar
    11    5   39 1
    12    6   40 1
    13    7    8 1
    14    7   41 1
    15    7   42 1
    16    8    9 1
    17    9   14 ar
    18    9   10 ar
    19   10   11 ar
    20   10   43 1
    21   11   12 ar
    22   11   44 1
    23   12   13 ar
    24   12   15 1
    25   13   14 ar
    26   13   45 1
    27   14   46 1
    28   15   22 1
    29   15   16 2
    30   16   17 1
    31   16   47 1
    32   17   18 am
    33   17   24 1
    34   18   19 2
    35   18   20 am
    36   20   21 1
    37   20   22 am
    38   22   23 2
    39   24   28 1
    40   24   25 1
    41   24   48 1
    42   25   26 1
    43   25   49 1
    44   25   50 1
    45   26   27 1
    46   26   35 1
    47   26   51 1
    48   27   28 1
    49   27   29 1
    50   27   52 1
    51   29   30 1
    52   29   53 1
    53   29   54 1
    54   30   31 1
    55   31   32 2
    56   31   33 1
    57   31   34 1
    58   34   55 1
    59   35   56 1
@<TRIPOS>MOLECULE
CHEMBL1159763__12
   55    58     0     0     0
SMALL
USER_CHARGES

@<TRIPOS>ATOM
      1 C1         -0.0167    1.3781    0.0096 C.ar      1 <0>        -0.1126
      2 C2          1.1709    2.0855    0.0021 C.ar      1 <0>        -0.1240
      3 C3          2.3773    1.4107   -0.0130 C.ar      1 <0>        -0.0948
      4 C4          2.3960    0.0285   -0.0201 C.ar      1 <0>        -0.0932
      5 C5          1.2084   -0.6789   -0.0117 C.ar      1 <0>        -0.0956
      6 C6          0.0021   -0.0041    0.0020 C.ar      1 <0>        -0.1246
      7 C7          3.7112   -0.7071   -0.0376 C.3       1 <0>         0.0995
      8 O1          4.1410   -0.9464    1.3041 O.3       1 <0>        -0.3104
      9 C8          5.3188   -1.6050    1.4666 C.ar      1 <0>         0.1278
     10 C9          6.0467   -2.0066    0.3550 C.ar      1 <0>        -0.2065
     11 C10         7.2421   -2.6756    0.5165 C.ar      1 <0>        -0.0467
     12 C11         7.7191   -2.9479    1.7977 C.ar      1 <0>        -0.0406
     13 C12         6.9859   -2.5429    2.9119 C.ar      1 <0>        -0.0657
     14 C13         5.7938   -1.8696    2.7437 C.ar      1 <0>        -0.1513
     15 C14         9.0038   -3.6675    1.9750 C.2       1 <0>        -0.2341
     16 C15        10.0728   -3.0554    2.5585 C.2       1 <0>         0.1961
     17 N1         11.2431   -3.7444    2.7079 N.am      1 <0>        -0.5215
     18 C16        11.3640   -5.0153    2.2913 C.2       1 <0>         0.6899
     19 O2         12.4248   -5.5893    2.4453 O.2       1 <0>        -0.4958
     20 N2         10.3447   -5.6708    1.7089 N.am      1 <0>        -0.6573
     21 H1         10.4639   -6.5888    1.4191 H         1 <0>         0.4316
     22 C17         9.1544   -5.0598    1.5316 C.2       1 <0>         0.5608
     23 O3          8.2257   -5.6491    1.0101 O.2       1 <0>        -0.5124
     24 C18        12.3899   -3.0829    3.3351 C.3       1 <0>         0.2910
     25 C19        12.7935   -3.8204    4.6311 C.3       1 <0>        -0.1889
     26 C20        14.3364   -3.7394    4.6442 C.3       1 <0>         0.0803
     27 C21        14.6825   -2.9625    3.3546 C.3       1 <0>         0.0918
     28 O4         13.5515   -3.1739    2.4817 O.3       1 <0>        -0.3329
     29 C22        15.9569   -3.5236    2.7206 C.3       1 <0>         0.1400
     30 O5         16.3237   -2.7201    1.5973 O.3       1 <0>        -0.7519
     31 P1         17.6191   -3.0207    0.6898 P.3       1 <0>         2.1282
     32 O6         18.8917   -3.0852    1.6012 O.2       1 <0>        -1.1887
     33 O7         17.4342   -4.3910   -0.0467 O.3       1 <0>        -1.1859
     34 O8         17.7920   -1.8783   -0.3683 O.3       1 <0>        -1.1674
     35 O9         14.7906   -3.0256    5.7959 O.3       1 <0>        -0.5512
     36 H2         -0.9591    1.9053    0.0259 H         1 <0>         0.1226
     37 H3          1.1563    3.1654    0.0076 H         1 <0>         0.1247
     38 H4          3.3051    1.9634   -0.0196 H         1 <0>         0.1257
     39 H5          1.2231   -1.7588   -0.0176 H         1 <0>         0.1247
     40 H6         -0.9258   -0.5567    0.0082 H         1 <0>         0.1240
     41 H7          3.5884   -1.6586   -0.5549 H         1 <0>         0.0723
     42 H8          4.4573   -0.1052   -0.5563 H         1 <0>         0.0732
     43 H9          5.6765   -1.7953   -0.6373 H         1 <0>         0.1280
     44 H10         7.8077   -2.9885   -0.3488 H         1 <0>         0.1272
     45 H11         7.3526   -2.7527    3.9058 H         1 <0>         0.1311
     46 H12         5.2274   -1.5517    3.6065 H         1 <0>         0.1305
     47 H13         9.9953   -2.0337    2.8998 H         1 <0>         0.1798
     48 H14        12.1559   -2.0397    3.5474 H         1 <0>         0.1158
     49 H15        12.3772   -3.3160    5.5031 H         1 <0>         0.0913
     50 H16        12.4659   -4.8594    4.5971 H         1 <0>         0.0925
     51 H17        14.7716   -4.7384    4.6167 H         1 <0>         0.0852
     52 H18        14.8012   -1.9009    3.5715 H         1 <0>         0.0906
     53 H19        16.7630   -3.5123    3.4541 H         1 <0>         0.0576
     54 H20        15.7788   -4.5476    2.3921 H         1 <0>         0.0460
     55 H21        14.5472   -3.4385    6.6358 H         1 <0>         0.3743
@<TRIPOS>BOND
     1    1    6 ar
     2    1    2 ar
     3    1   36 1
     4    2    3 ar
     5    2   37 1
     6    3    4 ar
     7    3   38 1
     8    4    5 ar
     9    4    7 1
    10    5    6 ar
    11    5   39 1
    12    6   40 1
    13    7    8 1
    14    7   41 1
    15    7   42 1
    16    8    9 1
    17    9   14 ar
    18    9   10 ar
    19   10   11 ar
    20   10   43 1
    21   11   12 ar
    22   11   44 1
    23   12   13 ar
    24   12   15 1
    25   13   14 ar
    26   13   45 1
    27   14   46 1
    28   15   22 1
    29   15   16 2
    30   16   17 1
    31   16   47 1
    32   17   18 am
    33   17   24 1
    34   18   19 2
    35   18   20 am
    36   20   21 1
    37   20   22 am
    38   22   23 2
    39   24   28 1
    40   24   25 1
    41   24   48 1
    42   25   26 1
    43   25   49 1
    44   25   50 1
    45   26   27 1
    46   26   35 1
    47   26   51 1
    48   27   28 1
    49   27   29 1
    50   27   52 1
    51   29   30 1
    52   29   53 1
    53   29   54 1
    54   30   31 1
    55   31   32 2
    56   31   33 1
    57   31   34 1
    58   35   55 1
@<TRIPOS>MOLECULE
CHEMBL1159763__13
   56    59     0     0     0
SMALL
USER_CHARGES

@<TRIPOS>ATOM
      1 C1         -0.0167    1.3781    0.0096 C.ar      1 <0>        -0.1106
      2 C2          1.1709    2.0855    0.0021 C.ar      1 <0>        -0.1236
      3 C3          2.3773    1.4107   -0.0130 C.ar      1 <0>        -0.0951
      4 C4          2.3960    0.0285   -0.0201 C.ar      1 <0>        -0.0961
      5 C5          1.2084   -0.6789   -0.0117 C.ar      1 <0>        -0.0952
      6 C6          0.0021   -0.0041    0.0020 C.ar      1 <0>        -0.1237
      7 C7          3.7112   -0.7071   -0.0376 C.3       1 <0>         0.1005
      8 O1          4.1410   -0.9464    1.3041 O.3       1 <0>        -0.3090
      9 C8          5.3188   -1.6050    1.4666 C.ar      1 <0>         0.1332
     10 C9          6.0467   -2.0066    0.3550 C.ar      1 <0>        -0.2073
     11 C10         7.2421   -2.6756    0.5165 C.ar      1 <0>        -0.0459
     12 C11         7.7191   -2.9479    1.7977 C.ar      1 <0>        -0.0506
     13 C12         6.9859   -2.5429    2.9119 C.ar      1 <0>        -0.0637
     14 C13         5.7938   -1.8696    2.7437 C.ar      1 <0>        -0.1511
     15 C14         9.0038   -3.6675    1.9750 C.2       1 <0>        -0.2180
     16 C15        10.0728   -3.0554    2.5585 C.2       1 <0>         0.1849
     17 N1         11.2431   -3.7444    2.7079 N.am      1 <0>        -0.5243
     18 C16        11.3640   -5.0153    2.2913 C.2       1 <0>         0.6938
     19 O2         12.4248   -5.5893    2.4453 O.2       1 <0>        -0.5058
     20 N2         10.3447   -5.6708    1.7089 N.am      1 <0>        -0.6576
     21 H1         10.4639   -6.5888    1.4191 H         1 <0>         0.4327
     22 C17         9.1544   -5.0598    1.5316 C.2       1 <0>         0.5573
     23 O3          8.2257   -5.6491    1.0101 O.2       1 <0>        -0.5031
     24 C18        12.3899   -3.0829    3.3351 C.3       1 <0>         0.2973
     25 C19        12.7935   -3.8204    4.6311 C.3       1 <0>        -0.1913
     26 C20        14.3364   -3.7394    4.6442 C.3       1 <0>         0.0819
     27 C21        14.6825   -2.9625    3.3546 C.3       1 <0>         0.0897
     28 O4         13.5515   -3.1739    2.4817 O.3       1 <0>        -0.3401
     29 C22        15.9569   -3.5236    2.7206 C.3       1 <0>         0.1458
     30 O5         16.3237   -2.7201    1.5973 O.3       1 <0>        -0.7546
     31 P1         17.6191   -3.0207    0.6898 P.3       1 <0>         2.2111
     32 O6         18.8741   -3.0843    1.5886 O.2       1 <0>        -1.1082
     33 O7         17.4368   -4.3721   -0.0365 O.3       1 <0>        -1.1046
     34 O8         17.7968   -1.8467   -0.3976 O.3       1 <0>        -0.8969
     35 O9         14.7906   -3.0256    5.7959 O.3       1 <0>        -0.5532
     36 H2         -0.9591    1.9053    0.0259 H         1 <0>         0.1238
     37 H3          1.1563    3.1654    0.0076 H         1 <0>         0.1253
     38 H4          3.3051    1.9634   -0.0196 H         1 <0>         0.1249
     39 H5          1.2231   -1.7588   -0.0176 H         1 <0>         0.1247
     40 H6         -0.9258   -0.5567    0.0082 H         1 <0>         0.1251
     41 H7          3.5884   -1.6586   -0.5549 H         1 <0>         0.0728
     42 H8          4.4573   -0.1052   -0.5563 H         1 <0>         0.0730
     43 H9          5.6765   -1.7953   -0.6373 H         1 <0>         0.1293
     44 H10         7.8077   -2.9885   -0.3488 H         1 <0>         0.1261
     45 H11         7.3526   -2.7527    3.9058 H         1 <0>         0.1312
     46 H12         5.2274   -1.5517    3.6065 H         1 <0>         0.1324
     47 H13         9.9953   -2.0337    2.8998 H         1 <0>         0.1807
     48 H14        12.1559   -2.0397    3.5474 H         1 <0>         0.1185
     49 H15        12.3772   -3.3160    5.5031 H         1 <0>         0.0962
     50 H16        12.4659   -4.8594    4.5971 H         1 <0>         0.0966
     51 H17        14.7716   -4.7384    4.6167 H         1 <0>         0.0871
     52 H18        14.8012   -1.9009    3.5715 H         1 <0>         0.0954
     53 H19        16.7630   -3.5123    3.4541 H         1 <0>         0.0762
     54 H20        15.7788   -4.5476    2.3921 H         1 <0>         0.0660
     55 H21        18.5596   -1.9626   -0.9804 H         1 <0>         0.4144
     56 H22        14.5472   -3.4385    6.6358 H         1 <0>         0.3821
@<TRIPOS>BOND
     1    1    6 ar
     2    1    2 ar
     3    1   36 1
     4    2    3 ar
     5    2   37 1
     6    3    4 ar
     7    3   38 1
     8    4    5 ar
     9    4    7 1
    10    5    6 ar
    11    5   39 1
    12    6   40 1
    13    7    8 1
    14    7   41 1
    15    7   42 1
    16    8    9 1
    17    9   14 ar
    18    9   10 ar
    19   10   11 ar
    20   10   43 1
    21   11   12 ar
    22   11   44 1
    23   12   13 ar
    24   12   15 1
    25   13   14 ar
    26   13   45 1
    27   14   46 1
    28   15   22 1
    29   15   16 2
    30   16   17 1
    31   16   47 1
    32   17   18 am
    33   17   24 1
    34   18   19 2
    35   18   20 am
    36   20   21 1
    37   20   22 am
    38   22   23 2
    39   24   28 1
    40   24   25 1
    41   24   48 1
    42   25   26 1
    43   25   49 1
    44   25   50 1
    45   26   27 1
    46   26   35 1
    47   26   51 1
    48   27   28 1
    49   27   29 1
    50   27   52 1
    51   29   30 1
    52   29   53 1
    53   29   54 1
    54   30   31 1
    55   31   32 2
    56   31   33 1
    57   31   34 1
    58   34   55 1
    59   35   56 1
@<TRIPOS>MOLECULE
CHEMBL1159763__14
   55    58     0     0     0
SMALL
USER_CHARGES

@<TRIPOS>ATOM
      1 C1         -0.0167    1.3781    0.0096 C.ar      1 <0>        -0.1127
      2 C2          1.1709    2.0855    0.0021 C.ar      1 <0>        -0.1237
      3 C3          2.3773    1.4107   -0.0130 C.ar      1 <0>        -0.0943
      4 C4          2.3960    0.0285   -0.0201 C.ar      1 <0>        -0.0931
      5 C5          1.2084   -0.6789   -0.0117 C.ar      1 <0>        -0.0958
      6 C6          0.0021   -0.0041    0.0020 C.ar      1 <0>        -0.1251
      7 C7          3.7112   -0.7071   -0.0376 C.3       1 <0>         0.0994
      8 O1          4.1410   -0.9464    1.3041 O.3       1 <0>        -0.3103
      9 C8          5.3188   -1.6050    1.4666 C.ar      1 <0>         0.1281
     10 C9          6.0467   -2.0066    0.3550 C.ar      1 <0>        -0.2064
     11 C10         7.2421   -2.6756    0.5165 C.ar      1 <0>        -0.0466
     12 C11         7.7191   -2.9479    1.7977 C.ar      1 <0>        -0.0408
     13 C12         6.9859   -2.5429    2.9119 C.ar      1 <0>        -0.0654
     14 C13         5.7938   -1.8696    2.7437 C.ar      1 <0>        -0.1510
     15 C14         9.0038   -3.6675    1.9750 C.2       1 <0>        -0.2361
     16 C15        10.0728   -3.0554    2.5585 C.2       1 <0>         0.1991
     17 N1         11.2431   -3.7444    2.7079 N.am      1 <0>        -0.5223
     18 C16        11.3640   -5.0153    2.2913 C.2       1 <0>         0.6941
     19 O2         12.4248   -5.5893    2.4453 O.2       1 <0>        -0.5107
     20 N2         10.3447   -5.6708    1.7089 N.am      1 <0>        -0.6583
     21 H1         10.4639   -6.5888    1.4191 H         1 <0>         0.4294
     22 C17         9.1544   -5.0598    1.5316 C.2       1 <0>         0.5610
     23 O3          8.2257   -5.6491    1.0101 O.2       1 <0>        -0.5132
     24 C18        12.3899   -3.0829    3.3351 C.3       1 <0>         0.2968
     25 C19        12.7883   -3.8188    4.6392 C.3       1 <0>        -0.1938
     26 C20        14.2845   -3.4199    4.7576 C.3       1 <0>         0.0805
     27 C21        14.7234   -3.3518    3.2790 C.3       1 <0>         0.0962
     28 O4         13.5444   -3.1743    2.4853 O.3       1 <0>        -0.3411
     29 C22        15.6710   -2.1683    3.0729 C.3       1 <0>         0.1342
     30 O5         16.1636   -2.1806    1.7315 O.3       1 <0>        -0.7551
     31 P1         17.1882   -1.0762    1.1636 P.3       1 <0>         2.1315
     32 O6         16.5893    0.3545    1.3845 O.2       1 <0>        -1.1895
     33 O7         18.5546   -1.1930    1.9211 O.3       1 <0>        -1.1901
     34 O8         17.4179   -1.3155   -0.3676 O.3       1 <0>        -1.1698
     35 O9         14.4226   -2.1451    5.3883 O.3       1 <0>        -0.5394
     36 H2         -0.9591    1.9053    0.0259 H         1 <0>         0.1224
     37 H3          1.1563    3.1654    0.0076 H         1 <0>         0.1249
     38 H4          3.3051    1.9634   -0.0196 H         1 <0>         0.1263
     39 H5          1.2231   -1.7588   -0.0176 H         1 <0>         0.1244
     40 H6         -0.9258   -0.5567    0.0082 H         1 <0>         0.1237
     41 H7          3.5884   -1.6586   -0.5549 H         1 <0>         0.0719
     42 H8          4.4573   -0.1052   -0.5563 H         1 <0>         0.0736
     43 H9          5.6765   -1.7953   -0.6373 H         1 <0>         0.1280
     44 H10         7.8077   -2.9885   -0.3488 H         1 <0>         0.1267
     45 H11         7.3526   -2.7527    3.9058 H         1 <0>         0.1311
     46 H12         5.2274   -1.5517    3.6065 H         1 <0>         0.1306
     47 H13         9.9953   -2.0337    2.8998 H         1 <0>         0.1813
     48 H14        12.1559   -2.0391    3.5444 H         1 <0>         0.1223
     49 H15        12.2148   -3.4497    5.4895 H         1 <0>         0.0909
     50 H16        12.6767   -4.8977    4.5311 H         1 <0>         0.1023
     51 H17        14.8480   -4.1827    5.2948 H         1 <0>         0.0857
     52 H18        15.2220   -4.2795    2.9982 H         1 <0>         0.1011
     53 H19        15.1342   -1.2372    3.2543 H         1 <0>         0.0485
     54 H20        16.5071   -2.2470    3.7677 H         1 <0>         0.0473
     55 H21        14.0786   -2.1138    6.2915 H         1 <0>         0.3713
@<TRIPOS>BOND
     1    1    6 ar
     2    1    2 ar
     3    1   36 1
     4    2    3 ar
     5    2   37 1
     6    3    4 ar
     7    3   38 1
     8    4    5 ar
     9    4    7 1
    10    5    6 ar
    11    5   39 1
    12    6   40 1
    13    7    8 1
    14    7   41 1
    15    7   42 1
    16    8    9 1
    17    9   14 ar
    18    9   10 ar
    19   10   11 ar
    20   10   43 1
    21   11   12 ar
    22   11   44 1
    23   12   13 ar
    24   12   15 1
    25   13   14 ar
    26   13   45 1
    27   14   46 1
    28   15   22 1
    29   15   16 2
    30   16   17 1
    31   16   47 1
    32   17   18 am
    33   17   24 1
    34   18   19 2
    35   18   20 am
    36   20   21 1
    37   20   22 am
    38   22   23 2
    39   24   28 1
    40   24   25 1
    41   24   48 1
    42   25   26 1
    43   25   49 1
    44   25   50 1
    45   26   27 1
    46   26   35 1
    47   26   51 1
    48   27   28 1
    49   27   29 1
    50   27   52 1
    51   29   30 1
    52   29   53 1
    53   29   54 1
    54   30   31 1
    55   31   32 2
    56   31   33 1
    57   31   34 1
    58   35   55 1
@<TRIPOS>MOLECULE
CHEMBL1159763__15
   56    59     0     0     0
SMALL
USER_CHARGES

@<TRIPOS>ATOM
      1 C1         -0.0167    1.3781    0.0096 C.ar      1 <0>        -0.1107
      2 C2          1.1709    2.0855    0.0021 C.ar      1 <0>        -0.1234
      3 C3          2.3773    1.4107   -0.0130 C.ar      1 <0>        -0.0947
      4 C4          2.3960    0.0285   -0.0201 C.ar      1 <0>        -0.0961
      5 C5          1.2084   -0.6789   -0.0117 C.ar      1 <0>        -0.0955
      6 C6          0.0021   -0.0041    0.0020 C.ar      1 <0>        -0.1240
      7 C7          3.7112   -0.7071   -0.0376 C.3       1 <0>         0.1004
      8 O1          4.1410   -0.9464    1.3041 O.3       1 <0>        -0.3089
      9 C8          5.3188   -1.6050    1.4666 C.ar      1 <0>         0.1333
     10 C9          6.0467   -2.0066    0.3550 C.ar      1 <0>        -0.2073
     11 C10         7.2421   -2.6756    0.5165 C.ar      1 <0>        -0.0460
     12 C11         7.7191   -2.9479    1.7977 C.ar      1 <0>        -0.0507
     13 C12         6.9859   -2.5429    2.9119 C.ar      1 <0>        -0.0635
     14 C13         5.7938   -1.8696    2.7437 C.ar      1 <0>        -0.1508
     15 C14         9.0038   -3.6675    1.9750 C.2       1 <0>        -0.2200
     16 C15        10.0728   -3.0554    2.5585 C.2       1 <0>         0.1874
     17 N1         11.2431   -3.7444    2.7079 N.am      1 <0>        -0.5254
     18 C16        11.3640   -5.0153    2.2913 C.2       1 <0>         0.6967
     19 O2         12.4248   -5.5893    2.4453 O.2       1 <0>        -0.5175
     20 N2         10.3447   -5.6708    1.7089 N.am      1 <0>        -0.6584
     21 H1         10.4639   -6.5888    1.4191 H         1 <0>         0.4310
     22 C17         9.1544   -5.0598    1.5316 C.2       1 <0>         0.5574
     23 O3          8.2257   -5.6491    1.0101 O.2       1 <0>        -0.5038
     24 C18        12.3899   -3.0829    3.3351 C.3       1 <0>         0.3015
     25 C19        12.7883   -3.8188    4.6392 C.3       1 <0>        -0.1955
     26 C20        14.2845   -3.4199    4.7576 C.3       1 <0>         0.0812
     27 C21        14.7234   -3.3518    3.2790 C.3       1 <0>         0.0967
     28 O4         13.5444   -3.1743    2.4853 O.3       1 <0>        -0.3482
     29 C22        15.6710   -2.1683    3.0729 C.3       1 <0>         0.1382
     30 O5         16.1636   -2.1806    1.7315 O.3       1 <0>        -0.7570
     31 P1         17.1882   -1.0762    1.1636 P.3       1 <0>         2.2127
     32 O6         16.5975    0.3347    1.3814 O.2       1 <0>        -1.1091
     33 O7         18.5357   -1.1914    1.9107 O.3       1 <0>        -1.1085
     34 O8         17.4243   -1.3221   -0.4099 O.3       1 <0>        -0.8973
     35 O9         14.4226   -2.1451    5.3883 O.3       1 <0>        -0.5467
     36 H2         -0.9591    1.9053    0.0259 H         1 <0>         0.1237
     37 H3          1.1563    3.1654    0.0076 H         1 <0>         0.1254
     38 H4          3.3051    1.9634   -0.0196 H         1 <0>         0.1253
     39 H5          1.2231   -1.7588   -0.0176 H         1 <0>         0.1245
     40 H6         -0.9258   -0.5567    0.0082 H         1 <0>         0.1248
     41 H7          3.5884   -1.6586   -0.5549 H         1 <0>         0.0724
     42 H8          4.4573   -0.1052   -0.5563 H         1 <0>         0.0732
     43 H9          5.6765   -1.7953   -0.6373 H         1 <0>         0.1292
     44 H10         7.8077   -2.9885   -0.3488 H         1 <0>         0.1256
     45 H11         7.3526   -2.7527    3.9058 H         1 <0>         0.1311
     46 H12         5.2274   -1.5517    3.6065 H         1 <0>         0.1325
     47 H13         9.9953   -2.0337    2.8998 H         1 <0>         0.1819
     48 H14        12.1559   -2.0391    3.5444 H         1 <0>         0.1243
     49 H15        12.2148   -3.4497    5.4895 H         1 <0>         0.0964
     50 H16        12.6767   -4.8977    4.5311 H         1 <0>         0.1059
     51 H17        14.8480   -4.1827    5.2948 H         1 <0>         0.0910
     52 H18        15.2220   -4.2795    2.9982 H         1 <0>         0.1061
     53 H19        15.1342   -1.2372    3.2543 H         1 <0>         0.0675
     54 H20        16.5071   -2.2470    3.7677 H         1 <0>         0.0673
     55 H21        18.0325   -0.6918   -0.8196 H         1 <0>         0.4137
     56 H22        14.0786   -2.1138    6.2915 H         1 <0>         0.3807
@<TRIPOS>BOND
     1    1    6 ar
     2    1    2 ar
     3    1   36 1
     4    2    3 ar
     5    2   37 1
     6    3    4 ar
     7    3   38 1
     8    4    5 ar
     9    4    7 1
    10    5    6 ar
    11    5   39 1
    12    6   40 1
    13    7    8 1
    14    7   41 1
    15    7   42 1
    16    8    9 1
    17    9   14 ar
    18    9   10 ar
    19   10   11 ar
    20   10   43 1
    21   11   12 ar
    22   11   44 1
    23   12   13 ar
    24   12   15 1
    25   13   14 ar
    26   13   45 1
    27   14   46 1
    28   15   22 1
    29   15   16 2
    30   16   17 1
    31   16   47 1
    32   17   18 am
    33   17   24 1
    34   18   19 2
    35   18   20 am
    36   20   21 1
    37   20   22 am
    38   22   23 2
    39   24   28 1
    40   24   25 1
    41   24   48 1
    42   25   26 1
    43   25   49 1
    44   25   50 1
    45   26   27 1
    46   26   35 1
    47   26   51 1
    48   27   28 1
    49   27   29 1
    50   27   52 1
    51   29   30 1
    52   29   53 1
    53   29   54 1
    54   30   31 1
    55   31   32 2
    56   31   33 1
    57   31   34 1
    58   34   55 1
    59   35   56 1
@<TRIPOS>MOLECULE
CHEMBL275685
   53    57     0     0     0
SMALL
USER_CHARGES

@<TRIPOS>ATOM
      1 C1         -0.0178    1.4608    0.0101 C.3       1 <0>         0.1072
      2 N1          0.0021   -0.0041    0.0020 N.pl3     1 <0>        -0.6780
      3 C2          0.0241   -0.7433    1.2666 C.3       1 <0>         0.1714
      4 C3         -1.3889   -1.0161    1.7137 C.ar      1 <0>        -0.0596
      5 C4         -2.0473   -0.1051    2.5184 C.ar      1 <0>        -0.1231
      6 C5         -3.3435   -0.3554    2.9285 C.ar      1 <0>        -0.0165
      7 C6         -3.9814   -1.5164    2.5336 C.ar      1 <0>        -0.6522
      8 C7         -3.3234   -2.4270    1.7282 C.ar      1 <0>        -0.0217
      9 C8         -2.0287   -2.1747    1.3145 C.ar      1 <0>        -0.1303
     10 S1         -5.6332   -1.8359    3.0573 S.o2      1 <0>         2.5751
     11 O1         -5.8118   -3.2445    3.0010 O.2       1 <0>        -0.9318
     12 O2         -5.8326   -1.0898    4.2501 O.2       1 <0>        -0.9292
     13 C9         -6.7074   -1.1433    1.8445 C.ar      1 <0>        -0.6584
     14 C10        -7.1343    0.1659    1.9661 C.ar      1 <0>        -0.0204
     15 C11        -7.9771    0.7093    1.0146 C.ar      1 <0>        -0.1359
     16 C12        -8.3926   -0.0563   -0.0587 C.ar      1 <0>        -0.0611
     17 C13        -7.9651   -1.3652   -0.1808 C.ar      1 <0>        -0.1408
     18 C14        -7.1188   -1.9073    0.7684 C.ar      1 <0>        -0.0258
     19 C15         0.0000   -0.6943   -1.2087 C.ar      1 <0>         0.2494
     20 C16         1.1883   -1.0351   -1.8342 C.ar      1 <0>        -0.1253
     21 C17         1.2356   -1.7235   -3.0436 C.ar      1 <0>        -0.0147
     22 C18         0.0637   -2.0997   -3.6758 C.ar      1 <0>         0.0699
     23 C19        -1.1234   -1.7542   -3.0404 C.ar      1 <0>        -0.0641
     24 C20        -1.2124   -1.0692   -1.8258 C.ar      1 <0>        -0.0655
     25 C21        -2.4959   -0.8081   -1.3249 C.ar      1 <0>         0.0239
     26 C22        -3.5860   -1.2343   -2.0362 C.ar      1 <0>        -0.1594
     27 C23        -3.4826   -1.9216   -3.2446 C.ar      1 <0>         0.0583
     28 C24        -2.2349   -2.1897   -3.7767 C.ar      1 <0>        -0.1856
     29 C25        -1.6583   -2.8536   -4.9561 C.cat     1 <0>         0.5650
     30 N2         -0.2767   -2.7719   -4.8471 N.pl3     1 <0>        -0.5839
     31 N3         -2.3249   -3.4173   -5.9288 N.pl3     1 <0>        -0.7273
     32 H1          1.0048    1.8381    0.0023 H         1 <0>         0.0517
     33 H2         -0.5450    1.8219   -0.8730 H         1 <0>         0.0594
     34 H3         -0.5280    1.8123    0.9069 H         1 <0>         0.0705
     35 H4          0.5496   -1.6879    1.1262 H         1 <0>         0.0849
     36 H5          0.5371   -0.1514    2.0246 H         1 <0>         0.0962
     37 H6         -1.5489    0.8020    2.8269 H         1 <0>         0.1368
     38 H7         -3.8577    0.3560    3.5577 H         1 <0>         0.1461
     39 H8         -3.8216   -3.3342    1.4199 H         1 <0>         0.1424
     40 H9         -1.5158   -2.8843    0.6822 H         1 <0>         0.1278
     41 H10        -6.8097    0.7640    2.8047 H         1 <0>         0.1434
     42 H11        -8.3112    1.7319    1.1100 H         1 <0>         0.1368
     43 H12        -9.0517    0.3680   -0.8017 H         1 <0>         0.1337
     44 H13        -8.2900   -1.9634   -1.0192 H         1 <0>         0.1344
     45 H14        -6.7818   -2.9287    0.6710 H         1 <0>         0.1411
     46 H15         2.1187   -0.7541   -1.3633 H         1 <0>         0.1518
     47 H16         2.1894   -1.9642   -3.4895 H         1 <0>         0.1496
     48 H17        -2.6229   -0.2790   -0.3919 H         1 <0>         0.1521
     49 H18        -4.5706   -1.0289   -1.6428 H         1 <0>         0.1501
     50 H19        -4.3738   -2.2370   -3.7668 H         1 <0>         0.1505
     51 H20        -3.2947   -3.4220   -5.9130 H         1 <0>         0.4514
     52 H21        -1.8497   -3.8308   -6.6664 H         1 <0>         0.4356
     53 H22         0.3560   -3.1290   -5.4898 H         1 <0>         0.4444
@<TRIPOS>BOND
     1    1    2 1
     2    1   32 1
     3    1   33 1
     4    1   34 1
     5    2    3 1
     6    2   19 1
     7    3    4 1
     8    3   35 1
     9    3   36 1
    10    4    9 ar
    11    4    5 ar
    12    5    6 ar
    13    5   37 1
    14    6    7 ar
    15    6   38 1
    16    7    8 ar
    17    7   10 1
    18    8    9 ar
    19    8   39 1
    20    9   40 1
    21   10   11 2
    22   10   12 2
    23   10   13 1
    24   13   18 ar
    25   13   14 ar
    26   14   15 ar
    27   14   41 1
    28   15   16 ar
    29   15   42 1
    30   16   17 ar
    31   16   43 1
    32   17   18 ar
    33   17   44 1
    34   18   45 1
    35   19   24 ar
    36   19   20 ar
    37   20   21 ar
    38   20   46 1
    39   21   22 ar
    40   21   47 1
    41   22   30 1
    42   22   23 ar
    43   23   28 ar
    44   23   24 ar
    45   24   25 ar
    46   25   26 ar
    47   25   48 1
    48   26   27 ar
    49   26   49 1
    50   27   28 ar
    51   27   50 1
    52   28   29 1
    53   29   30 1
    54   29   31 2
    55   30   53 1
    56   31   51 1
    57   31   52 1
@<TRIPOS>MOLECULE
CHEMBL418875
   56    57     0     0     0
SMALL
USER_CHARGES

@<TRIPOS>ATOM
      1 C1         -0.0169    1.3915    0.0097 C.ar      1 <0>        -0.0891
      2 C2          1.1702    2.0945    0.0021 C.ar      1 <0>        -0.0332
      3 C3          2.3776    1.4190   -0.0135 C.ar      1 <0>        -0.6747
      4 C4          2.4034    0.0357   -0.0216 C.ar      1 <0>        -0.0250
      5 C5          1.2235   -0.6793   -0.0137 C.ar      1 <0>        -0.1065
      6 C6          0.0021   -0.0041    0.0020 C.ar      1 <0>        -0.0538
      7 C7         -1.2662   -0.7638    0.0105 C.2       1 <0>         0.5394
      8 O1         -2.3285   -0.1731    0.0243 O.2       1 <0>        -0.5463
      9 N1         -1.2445   -2.1114    0.0031 N.am      1 <0>        -0.6710
     10 C8         -2.5013   -2.8643    0.0115 C.3       1 <0>         0.0726
     11 H1         -3.2513   -2.3257   -0.5676 H         1 <0>         0.0791
     12 C9         -2.2731   -4.2446   -0.6078 C.3       1 <0>        -0.0827
     13 C10        -1.9058   -4.0865   -2.0846 C.3       1 <0>        -0.1786
     14 C11        -1.6810   -5.4461   -2.6947 C.2       1 <0>         0.4918
     15 O2         -1.8032   -6.4485   -2.0115 O.co2     1 <0>        -0.6981
     16 O3         -1.3770   -5.5436   -3.8713 O.co2     1 <0>        -0.7185
     17 C12        -2.9818   -3.0238    1.4309 C.2       1 <0>         0.4992
     18 O4         -4.1757   -3.1011    1.6653 O.co2     1 <0>        -0.7012
     19 O5         -2.1765   -3.0755    2.3449 O.co2     1 <0>        -0.6968
     20 S1          3.8891    2.3245   -0.0236 S.o2      1 <0>         2.7094
     21 O6          4.8719    1.4678   -0.5889 O.2       1 <0>        -0.9219
     22 O7          3.5921    3.6045   -0.5647 O.2       1 <0>        -0.9577
     23 N2          4.3248    2.5676    1.5554 N.pl3     1 <0>        -0.9905
     24 C13         3.9301    3.7183    2.3882 C.3       1 <0>         0.1204
     25 C14         4.0298    3.2051    3.8465 C.3       1 <0>        -0.1293
     26 C15         5.2793    2.2884    3.7693 C.3       1 <0>        -0.1182
     27 C16         5.1642    1.6686    2.3608 C.3       1 <0>         0.1306
     28 H2          4.6993    0.6847    2.4237 H         1 <0>         0.1037
     29 C17         6.5330    1.5532    1.7412 C.2       1 <0>         0.4918
     30 O8          6.7912    2.1607    0.7237 O.2       1 <0>        -0.5134
     31 N3          7.4703    0.7749    2.3176 N.am      1 <0>        -0.7274
     32 C18         8.8010    0.6628    1.7152 C.3       1 <0>         0.1425
     33 C19         9.6661   -0.2743    2.5604 C.3       1 <0>        -0.1947
     34 C20        11.0349   -0.3897    1.9407 C.2       1 <0>         0.4963
     35 O9         11.2945    0.2210    0.9179 O.co2     1 <0>        -0.6926
     36 O10        11.8828   -1.0937    2.4621 O.co2     1 <0>        -0.7065
     37 H3         -0.9586    1.9199    0.0260 H         1 <0>         0.1439
     38 H4          1.1570    3.1744    0.0081 H         1 <0>         0.1399
     39 H5          3.3492   -0.4855   -0.0345 H         1 <0>         0.1441
     40 H6          1.2450   -1.7591   -0.0205 H         1 <0>         0.1408
     41 H7         -0.3968   -2.5828   -0.0079 H         1 <0>         0.3940
     42 H8         -1.4611   -4.7484   -0.0834 H         1 <0>         0.0617
     43 H9         -3.1841   -4.8367   -0.5213 H         1 <0>         0.0733
     44 H10        -2.7178   -3.5827   -2.6090 H         1 <0>         0.0526
     45 H11        -0.9948   -3.4943   -2.1711 H         1 <0>         0.0520
     46 H12         4.6144    4.5522    2.2319 H         1 <0>         0.0722
     47 H13         2.9071    4.0180    2.1607 H         1 <0>         0.0791
     48 H14         4.1924    4.0296    4.5406 H         1 <0>         0.0843
     49 H15         3.1428    2.6343    4.1213 H         1 <0>         0.0824
     50 H16         6.1937    2.8741    3.8633 H         1 <0>         0.0827
     51 H17         5.2364    1.5129    4.5341 H         1 <0>         0.0914
     52 H18         7.2638    0.2890    3.1313 H         1 <0>         0.3941
     53 H19         8.7102    0.2618    0.7057 H         1 <0>         0.0703
     54 H20         9.2655    1.6480    1.6744 H         1 <0>         0.0655
     55 H21         9.7569    0.1267    3.5698 H         1 <0>         0.0616
     56 H22         9.2015   -1.2595    2.6012 H         1 <0>         0.0649
@<TRIPOS>BOND
     1    1    6 ar
     2    1    2 ar
     3    1   37 1
     4    2    3 ar
     5    2   38 1
     6    3    4 ar
     7    3   20 1
     8    4    5 ar
     9    4   39 1
    10    5    6 ar
    11    5   40 1
    12    6    7 1
    13    7    8 2
    14    7    9 am
    15    9   10 1
    16    9   41 1
    17   10   11 1
    18   10   12 1
    19   10   17 1
    20   12   13 1
    21   12   42 1
    22   12   43 1
    23   13   14 1
    24   13   44 1
    25   13   45 1
    26   14   15 2
    27   14   16 1
    28   17   18 2
    29   17   19 1
    30   20   21 2
    31   20   22 2
    32   20   23 1
    33   23   27 1
    34   23   24 1
    35   24   25 1
    36   24   46 1
    37   24   47 1
    38   25   26 1
    39   25   48 1
    40   25   49 1
    41   26   27 1
    42   26   50 1
    43   26   51 1
    44   27   28 1
    45   27   29 1
    46   29   30 2
    47   29   31 am
    48   31   32 1
    49   31   52 1
    50   32   33 1
    51   32   53 1
    52   32   54 1
    53   33   34 1
    54   33   55 1
    55   33   56 1
    56   34   35 2
    57   34   36 1
@<TRIPOS>MOLECULE
CHEMBL290469
   54    56     0     0     0
SMALL
USER_CHARGES

@<TRIPOS>ATOM
      1 C1         -0.0127    1.0858    0.0080 C.3       1 <0>        -0.1127
      2 C2         -0.7416    1.5850   -1.2129 C.2       1 <0>         0.3901
      3 N1         -1.2185    0.7107   -2.0459 N.2       1 <0>        -0.5135
      4 C3         -1.8861    1.0857   -3.1657 C.ar      1 <0>         0.1583
      5 C4         -2.3988    0.1458   -4.0622 C.ar      1 <0>        -0.1021
      6 C5         -3.0695    0.5713   -5.1866 C.ar      1 <0>        -0.0511
      7 C6         -3.2433    1.9255   -5.4417 C.ar      1 <0>        -0.1305
      8 C7         -2.7463    2.8716   -4.5724 C.ar      1 <0>        -0.0246
      9 C8         -2.0647    2.4620   -3.4282 C.ar      1 <0>        -0.2029
     10 C9         -1.5124    3.4258   -2.4648 C.2       1 <0>         0.5535
     11 N2         -0.8708    2.9268   -1.3826 N.am      1 <0>        -0.6546
     12 O1         -1.6315    4.6256   -2.6317 O.2       1 <0>        -0.5147
     13 C10        -3.9816    2.3636   -6.6802 C.3       1 <0>         0.1632
     14 N3         -5.4103    2.4850   -6.3798 N.pl3     1 <0>        -0.5675
     15 C11        -5.9528    3.7596   -5.9028 C.3       1 <0>         0.1007
     16 C12        -6.3938    4.6057   -7.0988 C.3       1 <0>         0.0416
     17 F1         -6.9118    5.8229   -6.6432 F         1 <0>        -0.2128
     18 C13        -6.2491    1.3937   -6.5470 C.2       1 <0>         0.0378
     19 C14        -7.6104    1.3053   -6.3271 C.2       1 <0>        -0.0764
     20 N4         -8.2191    0.1727   -6.5484 N.2       1 <0>        -0.4063
     21 C15        -7.5068   -0.8619   -6.9794 C.2       1 <0>         0.0004
     22 S1         -5.8693   -0.1588   -7.0767 S.3       1 <0>         0.1818
     23 C16        -7.9504   -2.2235   -7.2974 C.2       1 <0>         0.6049
     24 O2         -7.1459   -3.0508   -7.6840 O.2       1 <0>        -0.5495
     25 N5         -9.2488   -2.5583   -7.1614 N.am      1 <0>        -0.6513
     26 C17        -9.6918   -3.9181   -7.4790 C.3       1 <0>         0.0728
     27 H1         -9.1125   -4.3021   -8.3188 H         1 <0>         0.0815
     28 C18       -11.1759   -3.8974   -7.8503 C.3       1 <0>        -0.0812
     29 C19       -11.3678   -3.0975   -9.1403 C.3       1 <0>        -0.1785
     30 C20       -12.8296   -3.0771   -9.5060 C.2       1 <0>         0.4916
     31 O3        -13.6426   -3.6492   -8.8002 O.co2     1 <0>        -0.6975
     32 O4        -13.1993   -2.4884  -10.5076 O.co2     1 <0>        -0.7204
     33 C21        -9.4864   -4.8064   -6.2791 C.2       1 <0>         0.4980
     34 O5         -9.1884   -4.3176   -5.2027 O.co2     1 <0>        -0.6955
     35 O6         -9.6184   -6.0139   -6.3848 O.co2     1 <0>        -0.6991
     36 H2          0.0021   -0.0041    0.0020 H         1 <0>         0.1060
     37 H3          1.0099    1.4631    0.0003 H         1 <0>         0.0915
     38 H4         -0.5229    1.4373    0.9048 H         1 <0>         0.0924
     39 H5         -2.2695   -0.9098   -3.8746 H         1 <0>         0.1466
     40 H6         -3.4651   -0.1569   -5.8791 H         1 <0>         0.1401
     41 H7         -2.8845    3.9233   -4.7760 H         1 <0>         0.1366
     42 H8         -0.4967    3.5327   -0.7240 H         1 <0>         0.4171
     43 H9         -3.5965    3.3283   -7.0106 H         1 <0>         0.0972
     44 H10        -3.8377    1.6254   -7.4692 H         1 <0>         0.0941
     45 H11        -6.8094    3.5705   -5.2559 H         1 <0>         0.0922
     46 H12        -5.1855    4.2941   -5.3427 H         1 <0>         0.0904
     47 H13        -5.5371    4.7948   -7.7457 H         1 <0>         0.0765
     48 H14        -7.1610    4.0712   -7.6588 H         1 <0>         0.0833
     49 H15        -8.1639    2.1636   -5.9759 H         1 <0>         0.1588
     50 H16        -9.8900   -1.8989   -6.8533 H         1 <0>         0.4014
     51 H17       -11.5272   -4.9182   -8.0001 H         1 <0>         0.0789
     52 H18       -11.7452   -3.4316   -7.0459 H         1 <0>         0.0584
     53 H19       -11.0164   -2.0766   -8.9905 H         1 <0>         0.0521
     54 H20       -10.7985   -3.5633   -9.9447 H         1 <0>         0.0528
@<TRIPOS>BOND
     1    1   36 1
     2    1   37 1
     3    1   38 1
     4    1    2 1
     5    2    3 2
     6    2   11 1
     7    3    4 1
     8    4    9 ar
     9    4    5 ar
    10    5    6 ar
    11    5   39 1
    12    6    7 ar
    13    6   40 1
    14    7    8 ar
    15    7   13 1
    16    8    9 ar
    17    8   41 1
    18    9   10 1
    19   10   12 2
    20   10   11 am
    21   11   42 1
    22   13   14 1
    23   13   43 1
    24   13   44 1
    25   14   15 1
    26   14   18 1
    27   15   16 1
    28   15   45 1
    29   15   46 1
    30   16   17 1
    31   16   47 1
    32   16   48 1
    33   18   22 1
    34   18   19 2
    35   19   20 1
    36   19   49 1
    37   20   21 2
    38   21   22 1
    39   21   23 1
    40   23   24 2
    41   23   25 am
    42   25   26 1
    43   25   50 1
    44   26   27 1
    45   26   28 1
    46   26   33 1
    47   28   29 1
    48   28   51 1
    49   28   52 1
    50   29   30 1
    51   29   53 1
    52   29   54 1
    53   30   31 2
    54   30   32 1
    55   33   34 2
    56   33   35 1
@<TRIPOS>MOLECULE
CHEMBL522363
   44    46     0     0     0
SMALL
USER_CHARGES

@<TRIPOS>ATOM
      1 C1          0.5738   -0.0223   -0.3155 C.3       1 <0>        -0.0718
      2 C2          0.2536   -1.4900   -0.4356 C.2       1 <0>        -0.1049
      3 C3         -0.9538   -2.0856   -0.4048 C.2       1 <0>        -0.1008
      4 C4         -1.0314   -3.5328   -0.5408 C.2       1 <0>        -0.2626
      5 C5         -2.1818   -4.3809   -0.5385 C.2       1 <0>         0.5616
      6 O1         -3.2977   -3.9072   -0.4101 O.2       1 <0>        -0.4760
      7 N1         -2.0174   -5.7088   -0.6803 N.am      1 <0>        -0.6536
      8 H1         -2.7960   -6.2874   -0.6792 H         1 <0>         0.4160
      9 C6         -0.7769   -6.2569   -0.8261 C.2       1 <0>         0.6518
     10 N2          0.3004   -5.5000   -0.8320 N.2       1 <0>        -0.5554
     11 C7          0.2082   -4.1820   -0.6960 C.2       1 <0>         0.1528
     12 S1          1.3819   -2.8516   -0.6603 S.3       1 <0>         0.1383
     13 N3         -0.6500   -7.6164   -0.9682 N.pl3     1 <0>        -0.8165
     14 S2         -2.4183   -1.1271   -0.2021 S.3       1 <0>         0.0231
     15 C8         -2.8987   -0.7290   -1.8500 C.ar      1 <0>        -0.0820
     16 C9         -2.1390   -1.1857   -2.9253 C.ar      1 <0>        -0.1367
     17 C10        -2.5088   -0.8788   -4.2037 C.ar      1 <0>        -0.0600
     18 C11        -3.6517   -0.1050   -4.4331 C.ar      1 <0>        -0.1189
     19 C12        -4.4124    0.3521   -3.3514 C.ar      1 <0>        -0.0658
     20 C13        -4.0407    0.0371   -2.0755 C.ar      1 <0>        -0.0962
     21 C14        -4.0531    0.2283   -5.8111 C.2       1 <0>         0.5474
     22 O2         -3.2217    0.6134   -6.6100 O.2       1 <0>        -0.5076
     23 N4         -5.3420    0.1062   -6.1857 N.am      1 <0>        -0.5776
     24 C15        -6.3662   -0.2209   -5.1906 C.3       1 <0>         0.1233
     25 C16        -7.0811    1.0596   -4.7547 C.3       1 <0>        -0.1954
     26 C17        -8.0295    0.7461   -3.6262 C.2       1 <0>         0.4998
     27 O3         -8.1247   -0.3956   -3.2094 O.co2     1 <0>        -0.6967
     28 O4         -8.7015    1.6343   -3.1302 O.co2     1 <0>        -0.7135
     29 C18        -5.6886    0.2851   -7.4758 C.2       1 <0>         0.6494
     30 O5         -4.8511    0.6483   -8.2891 O.co2     1 <0>        -0.6782
     31 O6         -6.8405    0.0842   -7.8328 O.co2     1 <0>        -0.6972
     32 H2          1.6520    0.1213   -0.3865 H         1 <0>         0.0747
     33 H3          0.0808    0.5241   -1.1195 H         1 <0>         0.0926
     34 H4          0.2203    0.3492    0.6463 H         1 <0>         0.0916
     35 H5         -1.4392   -8.1802   -0.9645 H         1 <0>         0.4173
     36 H6          0.2291   -8.0131   -1.0723 H         1 <0>         0.4287
     37 H7         -1.2567   -1.7827   -2.7475 H         1 <0>         0.1134
     38 H8         -1.9194   -1.2327   -5.0366 H         1 <0>         0.1257
     39 H9         -5.2949    0.9499   -3.5254 H         1 <0>         0.1528
     40 H10        -4.6299    0.3860   -1.2404 H         1 <0>         0.1310
     41 H11        -7.0892   -0.9103   -5.6266 H         1 <0>         0.0770
     42 H12        -5.8959   -0.6872   -4.3249 H         1 <0>         0.0766
     43 H13        -6.3452    1.7901   -4.4185 H         1 <0>         0.0525
     44 H14        -7.6403    1.4681   -5.5964 H         1 <0>         0.0703
@<TRIPOS>BOND
     1    1    2 1
     2    1   32 1
     3    1   33 1
     4    1   34 1
     5    2   12 1
     6    2    3 2
     7    3    4 1
     8    3   14 1
     9    4   11 2
    10    4    5 1
    11    5    6 2
    12    5    7 am
    13    7    8 1
    14    7    9 1
    15    9   10 2
    16    9   13 1
    17   10   11 1
    18   11   12 1
    19   13   35 1
    20   13   36 1
    21   14   15 1
    22   15   20 ar
    23   15   16 ar
    24   16   17 ar
    25   16   37 1
    26   17   18 ar
    27   17   38 1
    28   18   19 ar
    29   18   21 1
    30   19   20 ar
    31   19   39 1
    32   20   40 1
    33   21   22 2
    34   21   23 am
    35   23   24 1
    36   23   29 am
    37   24   25 1
    38   24   41 1
    39   24   42 1
    40   25   26 1
    41   25   43 1
    42   25   44 1
    43   26   27 2
    44   26   28 1
    45   29   30 2
    46   29   31 1
@<TRIPOS>MOLECULE
CHEMBL127583
   69    72     0     0     0
SMALL
USER_CHARGES

@<TRIPOS>ATOM
      1 C1         -3.0009   -0.8810   -1.3772 C.3       1 <0>        -0.1234
      2 C2         -2.3070    0.3696   -1.8521 C.ar      1 <0>        -0.0308
      3 C3         -1.6097    0.3513   -3.0394 C.ar      1 <0>        -0.1115
      4 C4         -0.9665    1.5088   -3.4814 C.ar      1 <0>         0.1595
      5 C5         -1.0419    2.6838   -2.7006 C.ar      1 <0>        -0.2024
      6 C6         -1.7525    2.6812   -1.5025 C.ar      1 <0>        -0.0177
      7 C7         -2.3834    1.5276   -1.0898 C.ar      1 <0>        -0.1331
      8 C8         -3.1585    1.5215    0.2025 C.3       1 <0>         0.1677
      9 N1         -3.0305    2.8269    0.8549 N.pl3     1 <0>        -0.6151
     10 C9         -3.9908    3.8923    0.5564 C.3       1 <0>         0.2264
     11 C10        -5.1223    3.8098    1.4943 C.1       1 <0>        -0.2120
     12 C11        -6.0248    3.7441    2.2423 C.1       1 <0>        -0.1797
     13 C12        -1.9976    3.0548    1.7575 C.ar      1 <0>         0.2568
     14 C13        -1.0184    2.0833    1.9523 C.ar      1 <0>        -0.2060
     15 C14        -0.0009    2.2994    2.8367 C.ar      1 <0>        -0.0108
     16 C15         0.0632    3.4995    3.5519 C.ar      1 <0>        -0.2106
     17 C16        -0.9193    4.4788    3.3584 C.ar      1 <0>         0.2054
     18 C17        -1.9417    4.2544    2.4590 C.ar      1 <0>        -0.2409
     19 F1         -0.8636    5.6405    4.0459 F         1 <0>        -0.1127
     20 C18         1.1611    3.7328    4.5069 C.2       1 <0>         0.5558
     21 O1          1.2151    4.7769    5.1280 O.2       1 <0>        -0.5347
     22 N2          2.1052    2.7889    4.6920 N.am      1 <0>        -0.6918
     23 C19         3.1966    3.0208    5.6414 C.3       1 <0>         0.0788
     24 H1          2.8247    3.5967    6.4889 H         1 <0>         0.0856
     25 C20         3.7369    1.6774    6.1354 C.3       1 <0>        -0.1014
     26 C21         2.6515    0.9541    6.9352 C.3       1 <0>        -0.1048
     27 C22         3.1919   -0.3893    7.4292 C.3       1 <0>        -0.0999
     28 S1          1.9050   -1.2469    8.3775 S.3       1 <0>         0.0100
     29 C23         2.6719   -2.7549    8.8699 C.2       1 <0>         0.2598
     30 N3          2.0824   -3.7482    9.6187 N.am      1 <0>        -0.6370
     31 C24         2.9797   -4.7394    9.7898 C.2       1 <0>         0.6558
     32 N4          4.1148   -4.3748    9.1585 N.am      1 <0>        -0.5422
     33 H2          4.9355   -4.8896    9.1097 H         1 <0>         0.4570
     34 N5          3.8884   -3.1177    8.5812 N.2       1 <0>        -0.2786
     35 O2          2.7986   -5.7762   10.4034 O.2       1 <0>        -0.5553
     36 C25         4.3011    3.7865    4.9597 C.2       1 <0>         0.4917
     37 O3          5.0091    4.5402    5.6057 O.co2     1 <0>        -0.6931
     38 O4          4.4868    3.6523    3.7622 O.co2     1 <0>        -0.6889
     39 C26        -0.3530    3.8856   -3.1940 C.2       1 <0>         0.5485
     40 N6          0.3105    3.7850   -4.3693 N.am      1 <0>        -0.6542
     41 C27         0.3296    2.6121   -5.0548 C.2       1 <0>         0.3972
     42 N7         -0.2684    1.5353   -4.6443 N.2       1 <0>        -0.5242
     43 C28         1.0839    2.5582   -6.3583 C.3       1 <0>        -0.1116
     44 O5         -0.3789    4.9304   -2.5699 O.2       1 <0>        -0.5025
     45 H3         -4.0506   -0.8471   -1.6690 H         1 <0>         0.0785
     46 H4         -2.5266   -1.7530   -1.8274 H         1 <0>         0.0736
     47 H5         -2.9275   -0.9474   -0.2917 H         1 <0>         0.0745
     48 H6         -1.5604   -0.5544   -3.6257 H         1 <0>         0.1396
     49 H7         -1.8119    3.5778   -0.9034 H         1 <0>         0.1412
     50 H8         -4.2095    1.3205   -0.0051 H         1 <0>         0.0934
     51 H9         -2.7633    0.7467    0.8595 H         1 <0>         0.0977
     52 H10        -3.5025    4.8612    0.6605 H         1 <0>         0.1044
     53 H11        -4.3557    3.7770   -0.4642 H         1 <0>         0.1013
     54 H12        -6.8320    3.6853    2.9112 H         1 <0>         0.2166
     55 H13        -1.0645    1.1553    1.4018 H         1 <0>         0.1314
     56 H14         0.7552    1.5425    2.9843 H         1 <0>         0.1349
     57 H15        -2.6996    5.0078    2.3029 H         1 <0>         0.1379
     58 H16         2.0620    1.9561    4.1966 H         1 <0>         0.3890
     59 H17         4.0268    1.0660    5.2808 H         1 <0>         0.0703
     60 H18         4.6053    1.8469    6.7720 H         1 <0>         0.0826
     61 H19         2.3617    1.5655    7.7898 H         1 <0>         0.0772
     62 H20         1.7832    0.7845    6.2986 H         1 <0>         0.0746
     63 H21         3.4818   -1.0008    6.5747 H         1 <0>         0.1005
     64 H22         4.0602   -0.2198    8.0659 H         1 <0>         0.1015
     65 H23         1.1763   -3.7366    9.9647 H         1 <0>         0.4427
     66 H24         2.1163    2.2645   -6.1687 H         1 <0>         0.0995
     67 H25         0.6146    1.8299   -7.0198 H         1 <0>         0.1033
     68 H26         1.0664    3.5410   -6.8292 H         1 <0>         0.0860
     69 H27         0.7766    4.5574   -4.7257 H         1 <0>         0.4187
@<TRIPOS>BOND
     1    1   45 1
     2    1   46 1
     3    1   47 1
     4    1    2 1
     5    2    7 ar
     6    2    3 ar
     7    3   48 1
     8    3    4 ar
     9    4    5 ar
    10    4   42 1
    11    5   39 1
    12    5    6 ar
    13    6   49 1
    14    6    7 ar
    15    7    8 1
    16    8    9 1
    17    8   50 1
    18    8   51 1
    19    9   10 1
    20    9   13 1
    21   10   11 1
    22   10   52 1
    23   10   53 1
    24   11   12 3
    25   12   54 1
    26   13   18 ar
    27   13   14 ar
    28   14   15 ar
    29   14   55 1
    30   15   16 ar
    31   15   56 1
    32   16   17 ar
    33   16   20 1
    34   17   18 ar
    35   17   19 1
    36   18   57 1
    37   20   21 2
    38   20   22 am
    39   22   23 1
    40   22   58 1
    41   23   24 1
    42   23   25 1
    43   23   36 1
    44   25   26 1
    45   25   59 1
    46   25   60 1
    47   26   27 1
    48   26   61 1
    49   26   62 1
    50   27   28 1
    51   27   63 1
    52   27   64 1
    53   28   29 1
    54   29   30 1
    55   29   34 2
    56   30   31 am
    57   30   65 1
    58   31   35 2
    59   31   32 am
    60   32   34 1
    61   32   33 1
    62   36   37 2
    63   36   38 1
    64   39   44 2
    65   39   40 am
    66   40   41 1
    67   40   69 1
    68   41   42 2
    69   41   43 1
    70   43   66 1
    71   43   67 1
    72   43   68 1
@<TRIPOS>MOLECULE
CHEMBL123446
   56    59     0     0     0
SMALL
USER_CHARGES

@<TRIPOS>ATOM
      1 C1          0.7382   -0.1371   -0.8746 C.3       1 <0>        -0.1166
      2 C2          0.0363    0.2853   -2.1395 C.2       1 <0>         0.4043
      3 N1         -1.1765    0.7400   -2.0486 N.2       1 <0>        -0.5196
      4 C3         -1.8698    1.1391   -3.1440 C.ar      1 <0>         0.1647
      5 C4         -3.1738    1.6288   -3.0487 C.ar      1 <0>        -0.0772
      6 C5         -3.8368    2.0224   -4.1909 C.ar      1 <0>        -0.0421
      7 C6         -3.2231    1.9371   -5.4349 C.ar      1 <0>        -0.1081
      8 C7         -1.9469    1.4603   -5.5526 C.ar      1 <0>        -0.0161
      9 C8         -1.2542    1.0566   -4.4129 C.ar      1 <0>        -0.1880
     10 C9          0.1195    0.5373   -4.4805 C.2       1 <0>         0.5515
     11 N2          0.7069    0.1760   -3.3160 N.am      1 <0>        -0.6523
     12 O1          0.7073    0.4404   -5.5421 O.2       1 <0>        -0.5018
     13 C10        -3.9723    2.3742   -6.6673 C.3       1 <0>         0.1592
     14 N3         -3.0808    2.3123   -7.8282 N.pl3     1 <0>        -0.6147
     15 C11        -3.0731    1.1227   -8.6833 C.3       1 <0>         0.2280
     16 C12        -3.9650    1.3398   -9.8340 C.1       1 <0>        -0.2193
     17 C13        -4.6763    1.5129  -10.7518 C.1       1 <0>        -0.1706
     18 C14        -2.2421    3.3826   -8.1186 C.ar      1 <0>         0.2412
     19 C15        -2.2466    4.5101   -7.3019 C.ar      1 <0>        -0.1981
     20 C16        -1.4177    5.5710   -7.5866 C.ar      1 <0>        -0.0078
     21 C17        -0.5706    5.5158   -8.6973 C.ar      1 <0>        -0.1942
     22 C18        -0.5685    4.3823   -9.5155 C.ar      1 <0>        -0.0354
     23 C19        -1.3956    3.3223   -9.2222 C.ar      1 <0>        -0.1958
     24 C20         0.3188    6.6516   -9.0057 C.2       1 <0>         0.5663
     25 O2          0.3157    7.6371   -8.2934 O.2       1 <0>        -0.5409
     26 N4          1.1349    6.5969  -10.0769 N.am      1 <0>        -0.7282
     27 C21         2.0183    7.7249  -10.3831 C.3       1 <0>         0.1672
     28 C22         2.8200    7.4135  -11.6206 C.ar      1 <0>        -0.1635
     29 C23         4.0475    6.7764  -11.5200 C.ar      1 <0>        -0.0560
     30 C24         4.7501    6.5101  -12.6850 C.ar      1 <0>        -0.1734
     31 C25         4.2075    6.8858  -13.8996 C.ar      1 <0>         0.1064
     32 N5          3.0372    7.4906  -13.9572 N.ar      1 <0>        -0.4845
     33 C26         2.3385    7.7542  -12.8702 C.ar      1 <0>         0.1188
     34 Br1        -5.6030    2.6860   -4.0641 Br        1 <0>        -0.0255
     35 H1          0.0749    0.0147   -0.0230 H         1 <0>         0.1076
     36 H2          1.0066   -1.1913   -0.9427 H         1 <0>         0.0962
     37 H3          1.6406    0.4599   -0.7431 H         1 <0>         0.0963
     38 H4         -3.6596    1.6984   -2.0866 H         1 <0>         0.1534
     39 H5         -1.4784    1.3970   -6.5237 H         1 <0>         0.1484
     40 H6          1.6141   -0.1674   -3.3218 H         1 <0>         0.4217
     41 H7         -4.8244    1.7137   -6.8279 H         1 <0>         0.1033
     42 H8         -4.3252    3.3968   -6.5343 H         1 <0>         0.1013
     43 H9         -2.0596    0.9375   -9.0390 H         1 <0>         0.1024
     44 H10        -3.4205    0.2621   -8.1116 H         1 <0>         0.1037
     45 H11        -5.3125    1.6677  -11.5727 H         1 <0>         0.2177
     46 H12        -2.9015    4.5522   -6.4441 H         1 <0>         0.1287
     47 H13        -1.4218    6.4455   -6.9528 H         1 <0>         0.1359
     48 H14         0.0845    4.3369  -10.3745 H         1 <0>         0.1230
     49 H15        -1.3910    2.4444   -9.8512 H         1 <0>         0.1289
     50 H16         1.1374    5.8108  -10.6451 H         1 <0>         0.3998
     51 H17         1.4194    8.6195  -10.5537 H         1 <0>         0.0821
     52 H18         2.6945    7.8947   -9.5452 H         1 <0>         0.0800
     53 H19         4.4469    6.4947  -10.5569 H         1 <0>         0.1370
     54 H20         5.7094    6.0157  -12.6442 H         1 <0>         0.1386
     55 H21         4.7485    6.6820  -14.8118 H         1 <0>         0.1585
     56 H22         1.3811    8.2463  -12.9573 H         1 <0>         0.1574
@<TRIPOS>BOND
     1    1   35 1
     2    1   36 1
     3    1   37 1
     4    1    2 1
     5    2    3 2
     6    2   11 1
     7    3    4 1
     8    4    9 ar
     9    4    5 ar
    10    5    6 ar
    11    5   38 1
    12    6    7 ar
    13    6   34 1
    14    7    8 ar
    15    7   13 1
    16    8    9 ar
    17    8   39 1
    18    9   10 1
    19   10   12 2
    20   10   11 am
    21   11   40 1
    22   13   14 1
    23   13   41 1
    24   13   42 1
    25   14   15 1
    26   14   18 1
    27   15   16 1
    28   15   43 1
    29   15   44 1
    30   16   17 3
    31   17   45 1
    32   18   23 ar
    33   18   19 ar
    34   19   20 ar
    35   19   46 1
    36   20   21 ar
    37   20   47 1
    38   21   22 ar
    39   21   24 1
    40   22   23 ar
    41   22   48 1
    42   23   49 1
    43   24   25 2
    44   24   26 am
    45   26   27 1
    46   26   50 1
    47   27   28 1
    48   27   51 1
    49   27   52 1
    50   28   33 ar
    51   28   29 ar
    52   29   30 ar
    53   29   53 1
    54   30   31 ar
    55   30   54 1
    56   31   32 ar
    57   31   55 1
    58   32   33 ar
    59   33   56 1
@<TRIPOS>MOLECULE
CHEMBL340814
   64    67     0     0     0
SMALL
USER_CHARGES

@<TRIPOS>ATOM
      1 C1         -3.0009   -0.8810   -1.3772 C.3       1 <0>        -0.1245
      2 C2         -2.3070    0.3696   -1.8521 C.ar      1 <0>        -0.0300
      3 C3         -1.6097    0.3513   -3.0394 C.ar      1 <0>        -0.1110
      4 C4         -0.9665    1.5088   -3.4814 C.ar      1 <0>         0.1560
      5 C5         -1.0419    2.6838   -2.7006 C.ar      1 <0>        -0.2016
      6 C6         -1.7525    2.6812   -1.5025 C.ar      1 <0>        -0.0179
      7 C7         -2.3834    1.5276   -1.0898 C.ar      1 <0>        -0.1288
      8 C8         -3.1585    1.5215    0.2025 C.3       1 <0>         0.1663
      9 N1         -3.0305    2.8269    0.8549 N.pl3     1 <0>        -0.6167
     10 C9         -3.9908    3.8923    0.5564 C.3       1 <0>         0.2282
     11 C10        -5.1223    3.8098    1.4943 C.1       1 <0>        -0.2108
     12 C11        -6.0248    3.7441    2.2423 C.1       1 <0>        -0.1823
     13 C12        -1.9976    3.0548    1.7575 C.ar      1 <0>         0.2514
     14 C13        -1.0184    2.0833    1.9523 C.ar      1 <0>        -0.2032
     15 C14        -0.0009    2.2994    2.8367 C.ar      1 <0>        -0.0104
     16 C15         0.0632    3.4995    3.5519 C.ar      1 <0>        -0.2039
     17 C16        -0.9193    4.4788    3.3584 C.ar      1 <0>         0.2024
     18 C17        -1.9417    4.2544    2.4590 C.ar      1 <0>        -0.2404
     19 F1         -0.8636    5.6405    4.0459 F         1 <0>        -0.1137
     20 C18         1.1611    3.7328    4.5069 C.2       1 <0>         0.5541
     21 O1          1.2151    4.7769    5.1280 O.2       1 <0>        -0.5407
     22 N2          2.1052    2.7889    4.6920 N.am      1 <0>        -0.6854
     23 C19         3.1966    3.0208    5.6414 C.3       1 <0>         0.0840
     24 H1          2.8247    3.5967    6.4889 H         1 <0>         0.0860
     25 C20         3.7369    1.6774    6.1354 C.3       1 <0>        -0.0872
     26 C21         2.6515    0.9541    6.9352 C.3       1 <0>        -0.4520
     27 S1          3.2922   -0.6387    7.5209 S.o       1 <0>         1.3906
     28 O2          3.4664   -1.5145    6.4155 O.2       1 <0>        -0.8609
     29 C22         1.9429   -1.3395    8.4114 C.2       1 <0>        -0.2697
     30 N3          0.9921   -2.1204    7.9194 N.2       1 <0>        -0.3325
     31 N4          0.1953   -2.4213    8.8874 N.2       1 <0>        -0.1986
     32 N5          0.6139   -1.8566    9.9662 N.2       1 <0>        -0.1948
     33 N6          1.6868   -1.1916    9.7030 N.2       1 <0>        -0.3259
     34 C23         4.3011    3.7865    4.9597 C.2       1 <0>         0.4956
     35 O3          5.0091    4.5402    5.6057 O.co2     1 <0>        -0.6960
     36 O4          4.4868    3.6523    3.7622 O.co2     1 <0>        -0.6929
     37 C24        -0.3530    3.8856   -3.1940 C.2       1 <0>         0.5489
     38 N7          0.3105    3.7850   -4.3693 N.am      1 <0>        -0.6546
     39 C25         0.3296    2.6121   -5.0548 C.2       1 <0>         0.3928
     40 N8         -0.2684    1.5353   -4.6443 N.2       1 <0>        -0.5222
     41 C26         1.0839    2.5582   -6.3583 C.3       1 <0>        -0.1098
     42 O5         -0.3789    4.9304   -2.5699 O.2       1 <0>        -0.5027
     43 H2         -4.0506   -0.8471   -1.6690 H         1 <0>         0.0779
     44 H3         -2.5266   -1.7530   -1.8274 H         1 <0>         0.0738
     45 H4         -2.9275   -0.9474   -0.2917 H         1 <0>         0.0766
     46 H5         -1.5604   -0.5544   -3.6257 H         1 <0>         0.1392
     47 H6         -1.8119    3.5778   -0.9034 H         1 <0>         0.1421
     48 H7         -4.2095    1.3205   -0.0051 H         1 <0>         0.0929
     49 H8         -2.7633    0.7467    0.8595 H         1 <0>         0.0993
     50 H9         -3.5025    4.8612    0.6605 H         1 <0>         0.1035
     51 H10        -4.3557    3.7770   -0.4642 H         1 <0>         0.0994
     52 H11        -6.8320    3.6853    2.9112 H         1 <0>         0.2161
     53 H12        -1.0645    1.1553    1.4018 H         1 <0>         0.1312
     54 H13         0.7552    1.5425    2.9843 H         1 <0>         0.1366
     55 H14        -2.6996    5.0078    2.3029 H         1 <0>         0.1366
     56 H15         2.0620    1.9561    4.1966 H         1 <0>         0.3900
     57 H16         4.0268    1.0660    5.2808 H         1 <0>         0.0673
     58 H17         4.6053    1.8469    6.7720 H         1 <0>         0.0878
     59 H18         2.3617    1.5655    7.7898 H         1 <0>         0.1116
     60 H19         1.7832    0.7845    6.2986 H         1 <0>         0.0805
     61 H20         2.1163    2.2645   -6.1687 H         1 <0>         0.0986
     62 H21         0.6146    1.8299   -7.0198 H         1 <0>         0.1020
     63 H22         1.0664    3.5410   -6.8292 H         1 <0>         0.0846
     64 H23         0.7766    4.5574   -4.7257 H         1 <0>         0.4174
@<TRIPOS>BOND
     1    1   43 1
     2    1   44 1
     3    1   45 1
     4    1    2 1
     5    2    7 ar
     6    2    3 ar
     7    3   46 1
     8    3    4 ar
     9    4    5 ar
    10    4   40 1
    11    5   37 1
    12    5    6 ar
    13    6   47 1
    14    6    7 ar
    15    7    8 1
    16    8    9 1
    17    8   48 1
    18    8   49 1
    19    9   10 1
    20    9   13 1
    21   10   11 1
    22   10   50 1
    23   10   51 1
    24   11   12 3
    25   12   52 1
    26   13   18 ar
    27   13   14 ar
    28   14   15 ar
    29   14   53 1
    30   15   16 ar
    31   15   54 1
    32   16   17 ar
    33   16   20 1
    34   17   18 ar
    35   17   19 1
    36   18   55 1
    37   20   21 2
    38   20   22 am
    39   22   23 1
    40   22   56 1
    41   23   24 1
    42   23   25 1
    43   23   34 1
    44   25   26 1
    45   25   57 1
    46   25   58 1
    47   26   27 1
    48   26   59 1
    49   26   60 1
    50   27   28 2
    51   27   29 1
    52   29   30 2
    53   29   33 1
    54   30   31 1
    55   31   32 2
    56   32   33 1
    57   34   35 2
    58   34   36 1
    59   37   42 2
    60   37   38 am
    61   38   39 1
    62   38   64 1
    63   39   40 2
    64   39   41 1
    65   41   61 1
    66   41   62 1
    67   41   63 1
@<TRIPOS>MOLECULE
CHEMBL340814__1
   64    67     0     0     0
SMALL
USER_CHARGES

@<TRIPOS>ATOM
      1 C1         -3.0009   -0.8810   -1.3772 C.3       1 <0>        -0.1243
      2 C2         -2.3070    0.3696   -1.8521 C.ar      1 <0>        -0.0300
      3 C3         -1.6097    0.3513   -3.0394 C.ar      1 <0>        -0.1111
      4 C4         -0.9665    1.5088   -3.4814 C.ar      1 <0>         0.1561
      5 C5         -1.0419    2.6838   -2.7006 C.ar      1 <0>        -0.2015
      6 C6         -1.7525    2.6812   -1.5025 C.ar      1 <0>        -0.0178
      7 C7         -2.3834    1.5276   -1.0898 C.ar      1 <0>        -0.1288
      8 C8         -3.1585    1.5215    0.2025 C.3       1 <0>         0.1665
      9 N1         -3.0305    2.8269    0.8549 N.pl3     1 <0>        -0.6168
     10 C9         -3.9908    3.8923    0.5564 C.3       1 <0>         0.2281
     11 C10        -5.1223    3.8098    1.4943 C.1       1 <0>        -0.2110
     12 C11        -6.0248    3.7441    2.2423 C.1       1 <0>        -0.1821
     13 C12        -1.9976    3.0548    1.7575 C.ar      1 <0>         0.2510
     14 C13        -1.0184    2.0833    1.9523 C.ar      1 <0>        -0.2033
     15 C14        -0.0009    2.2994    2.8367 C.ar      1 <0>        -0.0098
     16 C15         0.0632    3.4995    3.5519 C.ar      1 <0>        -0.2032
     17 C16        -0.9193    4.4788    3.3584 C.ar      1 <0>         0.2017
     18 C17        -1.9417    4.2544    2.4590 C.ar      1 <0>        -0.2407
     19 F1         -0.8636    5.6405    4.0459 F         1 <0>        -0.1143
     20 C18         1.1611    3.7328    4.5069 C.2       1 <0>         0.5532
     21 O1          1.2151    4.7769    5.1280 O.2       1 <0>        -0.5407
     22 N2          2.1052    2.7889    4.6920 N.am      1 <0>        -0.6841
     23 C19         3.1966    3.0208    5.6414 C.3       1 <0>         0.0849
     24 H1          2.8247    3.5967    6.4889 H         1 <0>         0.0817
     25 C20         3.7369    1.6774    6.1354 C.3       1 <0>        -0.0863
     26 C21         2.6515    0.9541    6.9352 C.3       1 <0>        -0.4522
     27 S1          3.2922   -0.6387    7.5209 S.o       1 <0>         1.3900
     28 O2          4.2813   -0.4143    8.5161 O.2       1 <0>        -0.8585
     29 C22         1.9429   -1.3395    8.4114 C.2       1 <0>        -0.2701
     30 N3          0.9921   -2.1204    7.9194 N.2       1 <0>        -0.3271
     31 N4          0.1953   -2.4213    8.8874 N.2       1 <0>        -0.1951
     32 N5          0.6139   -1.8566    9.9662 N.2       1 <0>        -0.1982
     33 N6          1.6868   -1.1916    9.7030 N.2       1 <0>        -0.3313
     34 C23         4.3011    3.7865    4.9597 C.2       1 <0>         0.4956
     35 O3          5.0091    4.5402    5.6057 O.co2     1 <0>        -0.6959
     36 O4          4.4868    3.6523    3.7622 O.co2     1 <0>        -0.6930
     37 C24        -0.3530    3.8856   -3.1940 C.2       1 <0>         0.5485
     38 N7          0.3105    3.7850   -4.3693 N.am      1 <0>        -0.6547
     39 C25         0.3296    2.6121   -5.0548 C.2       1 <0>         0.3932
     40 N8         -0.2684    1.5353   -4.6443 N.2       1 <0>        -0.5225
     41 C26         1.0839    2.5582   -6.3583 C.3       1 <0>        -0.1100
     42 O5         -0.3789    4.9304   -2.5699 O.2       1 <0>        -0.5026
     43 H2         -4.0506   -0.8471   -1.6690 H         1 <0>         0.0775
     44 H3         -2.5266   -1.7530   -1.8274 H         1 <0>         0.0738
     45 H4         -2.9275   -0.9474   -0.2917 H         1 <0>         0.0771
     46 H5         -1.5604   -0.5544   -3.6257 H         1 <0>         0.1391
     47 H6         -1.8119    3.5778   -0.9034 H         1 <0>         0.1420
     48 H7         -4.2095    1.3205   -0.0051 H         1 <0>         0.0924
     49 H8         -2.7633    0.7467    0.8595 H         1 <0>         0.1001
     50 H9         -3.5025    4.8612    0.6605 H         1 <0>         0.1032
     51 H10        -4.3557    3.7770   -0.4642 H         1 <0>         0.0992
     52 H11        -6.8320    3.6853    2.9112 H         1 <0>         0.2159
     53 H12        -1.0645    1.1553    1.4018 H         1 <0>         0.1321
     54 H13         0.7552    1.5425    2.9843 H         1 <0>         0.1395
     55 H14        -2.6996    5.0078    2.3029 H         1 <0>         0.1357
     56 H15         2.0620    1.9561    4.1966 H         1 <0>         0.3908
     57 H16         4.0268    1.0660    5.2808 H         1 <0>         0.0750
     58 H17         4.6053    1.8469    6.7720 H         1 <0>         0.0797
     59 H18         2.3617    1.5655    7.7898 H         1 <0>         0.0829
     60 H19         1.7832    0.7845    6.2986 H         1 <0>         0.1079
     61 H20         2.1163    2.2645   -6.1687 H         1 <0>         0.0987
     62 H21         0.6146    1.8299   -7.0198 H         1 <0>         0.1020
     63 H22         1.0664    3.5410   -6.8292 H         1 <0>         0.0844
     64 H23         0.7766    4.5574   -4.7257 H         1 <0>         0.4174
@<TRIPOS>BOND
     1    1   43 1
     2    1   44 1
     3    1   45 1
     4    1    2 1
     5    2    7 ar
     6    2    3 ar
     7    3   46 1
     8    3    4 ar
     9    4    5 ar
    10    4   40 1
    11    5   37 1
    12    5    6 ar
    13    6   47 1
    14    6    7 ar
    15    7    8 1
    16    8    9 1
    17    8   48 1
    18    8   49 1
    19    9   10 1
    20    9   13 1
    21   10   11 1
    22   10   50 1
    23   10   51 1
    24   11   12 3
    25   12   52 1
    26   13   18 ar
    27   13   14 ar
    28   14   15 ar
    29   14   53 1
    30   15   16 ar
    31   15   54 1
    32   16   17 ar
    33   16   20 1
    34   17   18 ar
    35   17   19 1
    36   18   55 1
    37   20   21 2
    38   20   22 am
    39   22   23 1
    40   22   56 1
    41   23   24 1
    42   23   25 1
    43   23   34 1
    44   25   26 1
    45   25   57 1
    46   25   58 1
    47   26   27 1
    48   26   59 1
    49   26   60 1
    50   27   28 2
    51   27   29 1
    52   29   30 2
    53   29   33 1
    54   30   31 1
    55   31   32 2
    56   32   33 1
    57   34   35 2
    58   34   36 1
    59   37   42 2
    60   37   38 am
    61   38   39 1
    62   38   64 1
    63   39   40 2
    64   39   41 1
    65   41   61 1
    66   41   62 1
    67   41   63 1
@<TRIPOS>MOLECULE
CHEMBL420155
   66    69     0     0     0
SMALL
USER_CHARGES

@<TRIPOS>ATOM
      1 C1         -3.0009   -0.8810   -1.3772 C.3       1 <0>        -0.1242
      2 C2         -2.3070    0.3696   -1.8521 C.ar      1 <0>        -0.0302
      3 C3         -1.6097    0.3513   -3.0394 C.ar      1 <0>        -0.1112
      4 C4         -0.9665    1.5088   -3.4814 C.ar      1 <0>         0.1569
      5 C5         -1.0419    2.6838   -2.7006 C.ar      1 <0>        -0.2019
      6 C6         -1.7525    2.6812   -1.5025 C.ar      1 <0>        -0.0178
      7 C7         -2.3834    1.5276   -1.0898 C.ar      1 <0>        -0.1300
      8 C8         -3.1585    1.5215    0.2025 C.3       1 <0>         0.1669
      9 N1         -3.0305    2.8269    0.8549 N.pl3     1 <0>        -0.6166
     10 C9         -3.9908    3.8923    0.5564 C.3       1 <0>         0.2276
     11 C10        -5.1223    3.8098    1.4943 C.1       1 <0>        -0.2106
     12 C11        -6.0248    3.7441    2.2423 C.1       1 <0>        -0.1821
     13 C12        -1.9976    3.0548    1.7575 C.ar      1 <0>         0.2521
     14 C13        -1.0184    2.0833    1.9523 C.ar      1 <0>        -0.2041
     15 C14        -0.0009    2.2994    2.8367 C.ar      1 <0>        -0.0100
     16 C15         0.0632    3.4995    3.5519 C.ar      1 <0>        -0.2043
     17 C16        -0.9193    4.4788    3.3584 C.ar      1 <0>         0.2028
     18 C17        -1.9417    4.2544    2.4590 C.ar      1 <0>        -0.2407
     19 F1         -0.8636    5.6405    4.0459 F         1 <0>        -0.1137
     20 C18         1.1611    3.7328    4.5069 C.2       1 <0>         0.5539
     21 O1          1.2151    4.7769    5.1280 O.2       1 <0>        -0.5396
     22 N2          2.1052    2.7889    4.6920 N.am      1 <0>        -0.6862
     23 C19         3.1966    3.0208    5.6414 C.3       1 <0>         0.0799
     24 H1          2.8247    3.5967    6.4889 H         1 <0>         0.0842
     25 C20         3.7369    1.6774    6.1354 C.3       1 <0>        -0.1032
     26 C21         2.6515    0.9541    6.9352 C.3       1 <0>        -0.0982
     27 C22         3.1919   -0.3893    7.4292 C.3       1 <0>        -0.0908
     28 S1          1.9050   -1.2469    8.3775 S.3       1 <0>        -0.0571
     29 C23         2.6719   -2.7549    8.8699 C.2       1 <0>         0.0551
     30 N3          2.1219   -3.7298    9.5938 N.2       1 <0>        -0.3634
     31 N4          3.0083   -4.6553    9.7346 N.2       1 <0>        -0.1955
     32 N5          4.0889   -4.3029    9.1309 N.2       1 <0>        -0.1929
     33 N6          3.9140   -3.1474    8.5866 N.2       1 <0>        -0.3781
     34 C24         4.3011    3.7865    4.9597 C.2       1 <0>         0.4947
     35 O2          5.0091    4.5402    5.6057 O.co2     1 <0>        -0.6966
     36 O3          4.4868    3.6523    3.7622 O.co2     1 <0>        -0.6933
     37 C25        -0.3530    3.8856   -3.1940 C.2       1 <0>         0.5487
     38 N7          0.3105    3.7850   -4.3693 N.am      1 <0>        -0.6546
     39 C26         0.3296    2.6121   -5.0548 C.2       1 <0>         0.3939
     40 N8         -0.2684    1.5353   -4.6443 N.2       1 <0>        -0.5228
     41 C27         1.0839    2.5582   -6.3583 C.3       1 <0>        -0.1103
     42 O4         -0.3789    4.9304   -2.5699 O.2       1 <0>        -0.5027
     43 H2         -4.0506   -0.8471   -1.6690 H         1 <0>         0.0779
     44 H3         -2.5266   -1.7530   -1.8274 H         1 <0>         0.0737
     45 H4         -2.9275   -0.9474   -0.2917 H         1 <0>         0.0764
     46 H5         -1.5604   -0.5544   -3.6257 H         1 <0>         0.1392
     47 H6         -1.8119    3.5778   -0.9034 H         1 <0>         0.1419
     48 H7         -4.2095    1.3205   -0.0051 H         1 <0>         0.0927
     49 H8         -2.7633    0.7467    0.8595 H         1 <0>         0.0993
     50 H9         -3.5025    4.8612    0.6605 H         1 <0>         0.1036
     51 H10        -4.3557    3.7770   -0.4642 H         1 <0>         0.0995
     52 H11        -6.8320    3.6853    2.9112 H         1 <0>         0.2162
     53 H12        -1.0645    1.1553    1.4018 H         1 <0>         0.1312
     54 H13         0.7552    1.5425    2.9843 H         1 <0>         0.1374
     55 H14        -2.6996    5.0078    2.3029 H         1 <0>         0.1362
     56 H15         2.0620    1.9561    4.1966 H         1 <0>         0.3901
     57 H16         4.0268    1.0660    5.2808 H         1 <0>         0.0667
     58 H17         4.6053    1.8469    6.7720 H         1 <0>         0.0793
     59 H18         2.3617    1.5655    7.7898 H         1 <0>         0.0693
     60 H19         1.7832    0.7845    6.2986 H         1 <0>         0.0667
     61 H20         3.4818   -1.0008    6.5747 H         1 <0>         0.0819
     62 H21         4.0602   -0.2198    8.0659 H         1 <0>         0.0829
     63 H22         2.1163    2.2645   -6.1687 H         1 <0>         0.0989
     64 H23         0.6146    1.8299   -7.0198 H         1 <0>         0.1023
     65 H24         1.0664    3.5410   -6.8292 H         1 <0>         0.0848
     66 H25         0.7766    4.5574   -4.7257 H         1 <0>         0.4177
@<TRIPOS>BOND
     1    1   43 1
     2    1   44 1
     3    1   45 1
     4    1    2 1
     5    2    7 ar
     6    2    3 ar
     7    3   46 1
     8    3    4 ar
     9    4    5 ar
    10    4   40 1
    11    5   37 1
    12    5    6 ar
    13    6   47 1
    14    6    7 ar
    15    7    8 1
    16    8    9 1
    17    8   48 1
    18    8   49 1
    19    9   10 1
    20    9   13 1
    21   10   11 1
    22   10   50 1
    23   10   51 1
    24   11   12 3
    25   12   52 1
    26   13   18 ar
    27   13   14 ar
    28   14   15 ar
    29   14   53 1
    30   15   16 ar
    31   15   54 1
    32   16   17 ar
    33   16   20 1
    34   17   18 ar
    35   17   19 1
    36   18   55 1
    37   20   21 2
    38   20   22 am
    39   22   23 1
    40   22   56 1
    41   23   24 1
    42   23   25 1
    43   23   34 1
    44   25   26 1
    45   25   57 1
    46   25   58 1
    47   26   27 1
    48   26   59 1
    49   26   60 1
    50   27   28 1
    51   27   61 1
    52   27   62 1
    53   28   29 1
    54   29   30 2
    55   29   33 1
    56   30   31 1
    57   31   32 2
    58   32   33 1
    59   34   35 2
    60   34   36 1
    61   37   42 2
    62   37   38 am
    63   38   39 1
    64   38   66 1
    65   39   40 2
    66   39   41 1
    67   41   63 1
    68   41   64 1
    69   41   65 1
@<TRIPOS>MOLECULE
CHEMBL439975
   66    68     0     0     0
SMALL
USER_CHARGES

@<TRIPOS>ATOM
      1 C1         -3.0009   -0.8810   -1.3772 C.3       1 <0>        -0.1240
      2 C2         -2.3070    0.3696   -1.8521 C.ar      1 <0>        -0.0303
      3 C3         -1.6097    0.3513   -3.0394 C.ar      1 <0>        -0.1112
      4 C4         -0.9665    1.5088   -3.4814 C.ar      1 <0>         0.1566
      5 C5         -1.0419    2.6838   -2.7006 C.ar      1 <0>        -0.2017
      6 C6         -1.7525    2.6812   -1.5025 C.ar      1 <0>        -0.0177
      7 C7         -2.3834    1.5276   -1.0898 C.ar      1 <0>        -0.1298
      8 C8         -3.1585    1.5215    0.2025 C.3       1 <0>         0.1671
      9 N1         -3.0305    2.8269    0.8549 N.pl3     1 <0>        -0.6169
     10 C9         -3.9908    3.8923    0.5564 C.3       1 <0>         0.2277
     11 C10        -5.1223    3.8098    1.4943 C.1       1 <0>        -0.2100
     12 C11        -6.0248    3.7441    2.2423 C.1       1 <0>        -0.1830
     13 C12        -1.9976    3.0548    1.7575 C.ar      1 <0>         0.2508
     14 C13        -1.0184    2.0833    1.9523 C.ar      1 <0>        -0.2039
     15 C14        -0.0009    2.2994    2.8367 C.ar      1 <0>        -0.0105
     16 C15         0.0632    3.4995    3.5519 C.ar      1 <0>        -0.2025
     17 C16        -0.9193    4.4788    3.3584 C.ar      1 <0>         0.2020
     18 C17        -1.9417    4.2544    2.4590 C.ar      1 <0>        -0.2405
     19 F1         -0.8636    5.6405    4.0459 F         1 <0>        -0.1138
     20 C18         1.1611    3.7328    4.5069 C.2       1 <0>         0.5521
     21 O1          1.2151    4.7769    5.1280 O.2       1 <0>        -0.5419
     22 N2          2.1052    2.7889    4.6920 N.am      1 <0>        -0.6831
     23 C19         3.1966    3.0208    5.6414 C.3       1 <0>         0.0784
     24 H1          2.8247    3.5967    6.4889 H         1 <0>         0.0813
     25 C20         3.7369    1.6774    6.1354 C.3       1 <0>        -0.1086
     26 C21         2.6515    0.9541    6.9352 C.3       1 <0>        -0.1161
     27 C22         3.1919   -0.3893    7.4292 C.3       1 <0>        -0.0919
     28 C23         2.1065   -1.1126    8.2290 C.3       1 <0>        -0.1810
     29 C24         2.6387   -2.4359    8.7156 C.2       1 <0>         0.4891
     30 O2          3.7803   -2.7695    8.4475 O.co2     1 <0>        -0.6991
     31 O3          1.9277   -3.1728    9.3774 O.co2     1 <0>        -0.7173
     32 C25         4.3011    3.7865    4.9597 C.2       1 <0>         0.4950
     33 O4          5.0091    4.5402    5.6057 O.co2     1 <0>        -0.6988
     34 O5          4.4868    3.6523    3.7622 O.co2     1 <0>        -0.6956
     35 C26        -0.3530    3.8856   -3.1940 C.2       1 <0>         0.5487
     36 N3          0.3105    3.7850   -4.3693 N.am      1 <0>        -0.6546
     37 C27         0.3296    2.6121   -5.0548 C.2       1 <0>         0.3937
     38 N4         -0.2684    1.5353   -4.6443 N.2       1 <0>        -0.5227
     39 C28         1.0839    2.5582   -6.3583 C.3       1 <0>        -0.1101
     40 O6         -0.3789    4.9304   -2.5699 O.2       1 <0>        -0.5025
     41 H2         -4.0506   -0.8471   -1.6690 H         1 <0>         0.0777
     42 H3         -2.5266   -1.7530   -1.8274 H         1 <0>         0.0737
     43 H4         -2.9275   -0.9474   -0.2917 H         1 <0>         0.0764
     44 H5         -1.5604   -0.5544   -3.6257 H         1 <0>         0.1392
     45 H6         -1.8119    3.5778   -0.9034 H         1 <0>         0.1420
     46 H7         -4.2095    1.3205   -0.0051 H         1 <0>         0.0925
     47 H8         -2.7633    0.7467    0.8595 H         1 <0>         0.0992
     48 H9         -3.5025    4.8612    0.6605 H         1 <0>         0.1035
     49 H10        -4.3557    3.7770   -0.4642 H         1 <0>         0.0994
     50 H11        -6.8320    3.6853    2.9112 H         1 <0>         0.2161
     51 H12        -1.0645    1.1553    1.4018 H         1 <0>         0.1311
     52 H13         0.7552    1.5425    2.9843 H         1 <0>         0.1377
     53 H14        -2.6996    5.0078    2.3029 H         1 <0>         0.1360
     54 H15         2.0620    1.9561    4.1966 H         1 <0>         0.3898
     55 H16         4.0268    1.0660    5.2808 H         1 <0>         0.0621
     56 H17         4.6053    1.8469    6.7720 H         1 <0>         0.0747
     57 H18         2.3617    1.5655    7.7898 H         1 <0>         0.0530
     58 H19         1.7832    0.7845    6.2986 H         1 <0>         0.0510
     59 H20         3.4818   -1.0008    6.5747 H         1 <0>         0.0560
     60 H21         4.0602   -0.2198    8.0659 H         1 <0>         0.0572
     61 H22         1.8167   -0.5012    9.0836 H         1 <0>         0.0530
     62 H23         1.2382   -1.2822    7.5924 H         1 <0>         0.0522
     63 H24         2.1163    2.2645   -6.1687 H         1 <0>         0.0989
     64 H25         0.6146    1.8299   -7.0198 H         1 <0>         0.1022
     65 H26         1.0664    3.5410   -6.8292 H         1 <0>         0.0847
     66 H27         0.7766    4.5574   -4.7257 H         1 <0>         0.4176
@<TRIPOS>BOND
     1    1   41 1
     2    1   42 1
     3    1   43 1
     4    1    2 1
     5    2    7 ar
     6    2    3 ar
     7    3   44 1
     8    3    4 ar
     9    4    5 ar
    10    4   38 1
    11    5   35 1
    12    5    6 ar
    13    6   45 1
    14    6    7 ar
    15    7    8 1
    16    8    9 1
    17    8   46 1
    18    8   47 1
    19    9   10 1
    20    9   13 1
    21   10   11 1
    22   10   48 1
    23   10   49 1
    24   11   12 3
    25   12   50 1
    26   13   18 ar
    27   13   14 ar
    28   14   15 ar
    29   14   51 1
    30   15   16 ar
    31   15   52 1
    32   16   17 ar
    33   16   20 1
    34   17   18 ar
    35   17   19 1
    36   18   53 1
    37   20   21 2
    38   20   22 am
    39   22   23 1
    40   22   54 1
    41   23   24 1
    42   23   25 1
    43   23   32 1
    44   25   26 1
    45   25   55 1
    46   25   56 1
    47   26   27 1
    48   26   57 1
    49   26   58 1
    50   27   28 1
    51   27   59 1
    52   27   60 1
    53   28   29 1
    54   28   61 1
    55   28   62 1
    56   29   30 2
    57   29   31 1
    58   32   33 2
    59   32   34 1
    60   35   40 2
    61   35   36 am
    62   36   37 1
    63   36   66 1
    64   37   38 2
    65   37   39 1
    66   39   63 1
    67   39   64 1
    68   39   65 1
@<TRIPOS>MOLECULE
CHEMBL6271
   64    67     0     0     0
SMALL
USER_CHARGES

@<TRIPOS>ATOM
      1 C1         -3.0009   -0.8810   -1.3772 C.3       1 <0>        -0.1247
      2 C2         -2.3070    0.3696   -1.8521 C.ar      1 <0>        -0.0295
      3 C3         -1.6097    0.3513   -3.0394 C.ar      1 <0>        -0.1110
      4 C4         -0.9665    1.5088   -3.4814 C.ar      1 <0>         0.1585
      5 C5         -1.0419    2.6838   -2.7006 C.ar      1 <0>        -0.2035
      6 C6         -1.7525    2.6812   -1.5025 C.ar      1 <0>        -0.0189
      7 C7         -2.3834    1.5276   -1.0898 C.ar      1 <0>        -0.1312
      8 C8         -3.1585    1.5215    0.2025 C.3       1 <0>         0.1660
      9 N1         -3.0305    2.8269    0.8549 N.pl3     1 <0>        -0.6145
     10 C9         -3.9908    3.8923    0.5564 C.3       1 <0>         0.2275
     11 C10        -5.1223    3.8098    1.4943 C.1       1 <0>        -0.2165
     12 C11        -6.0248    3.7441    2.2423 C.1       1 <0>        -0.1749
     13 C12        -1.9976    3.0548    1.7575 C.ar      1 <0>         0.2592
     14 C13        -1.0184    2.0833    1.9523 C.ar      1 <0>        -0.2059
     15 C14        -0.0009    2.2994    2.8367 C.ar      1 <0>        -0.0105
     16 C15         0.0632    3.4995    3.5519 C.ar      1 <0>        -0.2127
     17 C16        -0.9193    4.4788    3.3584 C.ar      1 <0>         0.2083
     18 C17        -1.9417    4.2544    2.4590 C.ar      1 <0>        -0.2403
     19 F1         -0.8636    5.6405    4.0459 F         1 <0>        -0.1116
     20 C18         1.1611    3.7328    4.5069 C.2       1 <0>         0.5600
     21 O1          1.2151    4.7769    5.1280 O.2       1 <0>        -0.5288
     22 N2          2.1052    2.7889    4.6920 N.am      1 <0>        -0.6948
     23 C19         3.1966    3.0208    5.6414 C.3       1 <0>         0.1099
     24 H1          3.4721    4.0753    5.6277 H         1 <0>         0.1014
     25 C20         4.3883    2.1852    5.2507 C.ar      1 <0>        -0.0510
     26 C21         4.2064    0.8940    4.7910 C.ar      1 <0>        -0.0625
     27 C22         5.2993    0.1276    4.4327 C.ar      1 <0>        -0.1150
     28 C23         6.5745    0.6523    4.5335 C.ar      1 <0>        -0.0701
     29 C24         6.7563    1.9434    4.9922 C.ar      1 <0>        -0.0480
     30 C25         5.6627    2.7115    5.3466 C.ar      1 <0>        -0.0428
     31 N3          8.1215    2.5049    5.1006 N.pl3     1 <0>         0.0389
     32 O2          9.0776    1.8342    4.7880 O.2       1 <0>        -0.1705
     33 O3          8.2805    3.6342    5.5018 O.3       1 <0>        -0.1595
     34 C26         2.7467    2.6371    7.0275 C.2       1 <0>         0.5004
     35 O4          1.9195    1.7540    7.1773 O.co2     1 <0>        -0.6765
     36 O5          3.2098    3.2098    7.9991 O.co2     1 <0>        -0.6774
     37 C27        -0.3530    3.8856   -3.1940 C.2       1 <0>         0.5489
     38 N4          0.3105    3.7850   -4.3693 N.am      1 <0>        -0.6545
     39 C28         0.3296    2.6121   -5.0548 C.2       1 <0>         0.3959
     40 N5         -0.2684    1.5353   -4.6443 N.2       1 <0>        -0.5228
     41 C29         1.0839    2.5582   -6.3583 C.3       1 <0>        -0.1117
     42 O6         -0.3789    4.9304   -2.5699 O.2       1 <0>        -0.5048
     43 H2         -4.0506   -0.8471   -1.6690 H         1 <0>         0.0795
     44 H3         -2.5266   -1.7530   -1.8274 H         1 <0>         0.0741
     45 H4         -2.9275   -0.9474   -0.2917 H         1 <0>         0.0754
     46 H5         -1.5604   -0.5544   -3.6257 H         1 <0>         0.1402
     47 H6         -1.8119    3.5778   -0.9034 H         1 <0>         0.1413
     48 H7         -4.2095    1.3205   -0.0051 H         1 <0>         0.0947
     49 H8         -2.7633    0.7467    0.8595 H         1 <0>         0.0987
     50 H9         -3.5025    4.8612    0.6605 H         1 <0>         0.1041
     51 H10        -4.3557    3.7770   -0.4642 H         1 <0>         0.1014
     52 H11        -6.8320    3.6853    2.9112 H         1 <0>         0.2172
     53 H12        -1.0645    1.1553    1.4018 H         1 <0>         0.1324
     54 H13         0.7552    1.5425    2.9843 H         1 <0>         0.1332
     55 H14        -2.6996    5.0078    2.3029 H         1 <0>         0.1394
     56 H15         2.0620    1.9561    4.1966 H         1 <0>         0.3898
     57 H16         3.2103    0.4842    4.7123 H         1 <0>         0.1422
     58 H17         5.1572   -0.8812    4.0744 H         1 <0>         0.1460
     59 H18         7.4285    0.0532    4.2542 H         1 <0>         0.1492
     60 H19         5.8045    3.7216    5.7014 H         1 <0>         0.1551
     61 H20         2.1163    2.2645   -6.1687 H         1 <0>         0.0991
     62 H21         0.6146    1.8299   -7.0198 H         1 <0>         0.1038
     63 H22         1.0664    3.5410   -6.8292 H         1 <0>         0.0861
     64 H23         0.7766    4.5574   -4.7257 H         1 <0>         0.4184
@<TRIPOS>BOND
     1    1   43 1
     2    1   44 1
     3    1   45 1
     4    1    2 1
     5    2    7 ar
     6    2    3 ar
     7    3   46 1
     8    3    4 ar
     9    4    5 ar
    10    4   40 1
    11    5   37 1
    12    5    6 ar
    13    6   47 1
    14    6    7 ar
    15    7    8 1
    16    8    9 1
    17    8   48 1
    18    8   49 1
    19    9   10 1
    20    9   13 1
    21   10   11 1
    22   10   50 1
    23   10   51 1
    24   11   12 3
    25   12   52 1
    26   13   18 ar
    27   13   14 ar
    28   14   15 ar
    29   14   53 1
    30   15   16 ar
    31   15   54 1
    32   16   17 ar
    33   16   20 1
    34   17   18 ar
    35   17   19 1
    36   18   55 1
    37   20   21 2
    38   20   22 am
    39   22   23 1
    40   22   56 1
    41   23   24 1
    42   23   25 1
    43   23   34 1
    44   25   30 ar
    45   25   26 ar
    46   26   27 ar
    47   26   57 1
    48   27   28 ar
    49   27   58 1
    50   28   29 ar
    51   28   59 1
    52   29   30 ar
    53   29   31 1
    54   30   60 1
    55   31   32 2
    56   31   33 1
    57   34   35 2
    58   34   36 1
    59   37   42 2
    60   37   38 am
    61   38   39 1
    62   38   64 1
    63   39   40 2
    64   39   41 1
    65   41   61 1
    66   41   62 1
    67   41   63 1
@<TRIPOS>MOLECULE
CHEMBL93048
   54    56     0     0     0
SMALL
USER_CHARGES

@<TRIPOS>ATOM
      1 C1          0.0180   -1.1779   -0.0044 C.1       1 <0>        -0.1832
      2 C2          0.0021   -0.0041    0.0020 C.1       1 <0>        -0.2110
      3 C3         -0.0179    1.4678    0.0101 C.3       1 <0>         0.2299
      4 N1          1.3565    1.9749   -0.0003 N.pl3     1 <0>        -0.6127
      5 C4          2.0316    2.2352   -1.2741 C.3       1 <0>         0.1598
      6 C5          1.7714    3.6575   -1.6991 C.ar      1 <0>        -0.0995
      7 C6          0.6591    3.9471   -2.4867 C.ar      1 <0>        -0.0748
      8 C7          0.3955    5.2206   -2.8880 C.ar      1 <0>        -0.0934
      9 C8          1.2550    6.2648   -2.5046 C.ar      1 <0>         0.1563
     10 C9          2.3849    5.9678   -1.7035 C.ar      1 <0>        -0.0962
     11 C10         2.6232    4.6434   -1.3037 C.ar      1 <0>        -0.0686
     12 C11         3.2454    7.0158   -1.3201 C.ar      1 <0>         0.0381
     13 C12         2.9480    8.2816   -1.7424 C.ar      1 <0>        -0.1576
     14 C13         1.8196    8.5046   -2.5294 C.ar      1 <0>         0.2195
     15 N2          1.0206    7.5254   -2.8837 N.ar      1 <0>        -0.4662
     16 Cl1         1.4608   10.1201   -3.0538 Cl        1 <0>        -0.0186
     17 Cl2         4.6438    6.7082   -0.3386 Cl        1 <0>        -0.0057
     18 C14         2.0203    2.2090    1.1989 C.ar      1 <0>         0.2512
     19 C15         3.3251    2.6967    1.1869 C.ar      1 <0>        -0.2125
     20 C16         3.9837    2.9292    2.3600 C.ar      1 <0>        -0.0097
     21 C17         3.3499    2.6789    3.5812 C.ar      1 <0>        -0.1959
     22 C18         2.0379    2.1890    3.5974 C.ar      1 <0>         0.2022
     23 C19         1.3776    1.9612    2.4071 C.ar      1 <0>        -0.2427
     24 F1          1.4195    1.9449    4.7735 F         1 <0>        -0.1137
     25 C20         4.0608    2.9294    4.8477 C.2       1 <0>         0.5552
     26 O1          3.5081    2.7111    5.9087 O.2       1 <0>        -0.5466
     27 N3          5.3235    3.4004    4.8299 N.am      1 <0>        -0.6775
     28 C21         6.0301    3.6494    6.0889 C.3       1 <0>         0.0740
     29 H1          5.7350    2.9018    6.8252 H         1 <0>         0.0775
     30 C22         7.5393    3.5641    5.8521 C.3       1 <0>        -0.0798
     31 C23         7.9131    2.1349    5.4539 C.3       1 <0>        -0.1776
     32 C24         9.3996    2.0510    5.2207 C.2       1 <0>         0.4909
     33 O2         10.0955    3.0423    5.3601 O.co2     1 <0>        -0.6972
     34 O3          9.9063    0.9917    4.8927 O.co2     1 <0>        -0.7205
     35 C25         5.6785    5.0231    6.5991 C.2       1 <0>         0.4959
     36 O4          4.9089    5.7287    5.9695 O.co2     1 <0>        -0.6964
     37 O5          6.1635    5.4288    7.6415 O.co2     1 <0>        -0.7007
     38 H2          0.0322   -2.2278   -0.0102 H         1 <0>         0.2156
     39 H3         -0.5451    1.8289   -0.8729 H         1 <0>         0.0981
     40 H4         -0.5281    1.8193    0.9069 H         1 <0>         0.1028
     41 H5          3.1042    2.0821   -1.1549 H         1 <0>         0.0953
     42 H6          1.6495    1.5533   -2.0338 H         1 <0>         0.0909
     43 H7         -0.0042    3.1483   -2.7838 H         1 <0>         0.1343
     44 H8         -0.4706    5.4280   -3.4989 H         1 <0>         0.1420
     45 H9          3.4797    4.4072   -0.6896 H         1 <0>         0.1451
     46 H10         3.5864    9.1078   -1.4661 H         1 <0>         0.1603
     47 H11         3.8178    2.8912    0.2457 H         1 <0>         0.1292
     48 H12         4.9955    3.3067    2.3448 H         1 <0>         0.1374
     49 H13         0.3644    1.5874    2.4138 H         1 <0>         0.1352
     50 H14         5.7643    3.5745    3.9836 H         1 <0>         0.3867
     51 H15         7.8209    4.2495    5.0527 H         1 <0>         0.0542
     52 H16         8.0665    3.8362    6.7665 H         1 <0>         0.0788
     53 H17         7.6315    1.4496    6.2533 H         1 <0>         0.0522
     54 H18         7.3859    1.8628    4.5395 H         1 <0>         0.0498
@<TRIPOS>BOND
     1    1    2 3
     2    1   38 1
     3    2    3 1
     4    3    4 1
     5    3   39 1
     6    3   40 1
     7    4    5 1
     8    4   18 1
     9    5    6 1
    10    5   41 1
    11    5   42 1
    12    6   11 ar
    13    6    7 ar
    14    7    8 ar
    15    7   43 1
    16    8    9 ar
    17    8   44 1
    18    9   15 ar
    19    9   10 ar
    20   10   11 ar
    21   10   12 ar
    22   11   45 1
    23   12   13 ar
    24   12   17 1
    25   13   14 ar
    26   13   46 1
    27   14   15 ar
    28   14   16 1
    29   18   23 ar
    30   18   19 ar
    31   19   20 ar
    32   19   47 1
    33   20   21 ar
    34   20   48 1
    35   21   22 ar
    36   21   25 1
    37   22   23 ar
    38   22   24 1
    39   23   49 1
    40   25   26 2
    41   25   27 am
    42   27   28 1
    43   27   50 1
    44   28   29 1
    45   28   30 1
    46   28   35 1
    47   30   31 1
    48   30   51 1
    49   30   52 1
    50   31   32 1
    51   31   53 1
    52   31   54 1
    53   32   33 2
    54   32   34 1
    55   35   36 2
    56   35   37 1
@<TRIPOS>MOLECULE
CHEMBL415447
   47    49     0     0     0
SMALL
USER_CHARGES

@<TRIPOS>ATOM
      1 C1         -0.0184    1.5028    0.0103 C.3       1 <0>        -0.1181
      2 C2          0.0021   -0.0041    0.0020 C.2       1 <0>        -0.1208
      3 C3         -1.1526   -0.6864    0.0038 C.2       1 <0>        -0.1294
      4 C4         -1.1244   -2.1624   -0.0049 C.2       1 <0>         0.4157
      5 O1         -2.1593   -2.7967   -0.0038 O.2       1 <0>        -0.4044
      6 C5          0.1886   -2.8631   -0.0154 C.2       1 <0>        -0.0154
      7 C6          1.3386   -2.1349   -0.0169 C.2       1 <0>        -0.1489
      8 C7          1.2933   -0.7205   -0.0142 C.2       1 <0>         0.4060
      9 O2          2.3319   -0.0864   -0.0207 O.2       1 <0>        -0.4126
     10 C8          0.2431   -4.3314   -0.0236 C.2       1 <0>        -0.2648
     11 C9          0.8635   -5.0285    1.0015 C.2       1 <0>         0.2263
     12 N1          0.8928   -6.3857    0.9583 N.am      1 <0>        -0.5273
     13 C10         0.3354   -7.0679   -0.0542 C.2       1 <0>         0.7028
     14 O3          0.3900   -8.2822   -0.0445 O.2       1 <0>        -0.5375
     15 N2         -0.2815   -6.4540   -1.0781 N.am      1 <0>        -0.6545
     16 H1         -0.6729   -6.9827   -1.7910 H         1 <0>         0.4309
     17 C11        -0.3657   -5.1075   -1.1191 C.2       1 <0>         0.5693
     18 O4         -0.9273   -4.5470   -2.0413 O.2       1 <0>        -0.5041
     19 C12         1.5486   -7.1220    2.0418 C.3       1 <0>         0.2953
     20 C13         0.5284   -8.0484    2.7378 C.3       1 <0>        -0.1836
     21 C14         0.9303   -7.9173    4.2322 C.3       1 <0>         0.0758
     22 C15         1.3911   -6.4389    4.2843 C.3       1 <0>         0.0834
     23 O5          2.0407   -6.2039    3.0249 O.3       1 <0>        -0.3391
     24 C16         2.3755   -6.2298    5.4368 C.3       1 <0>         0.1405
     25 O6          2.6985   -4.8417    5.5413 O.3       1 <0>        -0.7560
     26 P1          3.7103   -4.2579    6.6493 P.3       1 <0>         2.1278
     27 O7          3.2297   -4.6922    8.0758 O.2       1 <0>        -1.1894
     28 O8          5.1496   -4.8195    6.3898 O.3       1 <0>        -1.1855
     29 O9          3.7361   -2.6940    6.5606 O.3       1 <0>        -1.1664
     30 O10         2.0038   -8.8031    4.5564 O.3       1 <0>        -0.5360
     31 C17        -2.4685    0.0479    0.0150 C.3       1 <0>        -0.1120
     32 H2          1.0042    1.8801    0.0026 H         1 <0>         0.0820
     33 H3         -0.5455    1.8639   -0.8728 H         1 <0>         0.0780
     34 H4         -0.5286    1.8543    0.9071 H         1 <0>         0.0834
     35 H5          2.2930   -2.6404   -0.0245 H         1 <0>         0.1596
     36 H6          1.3188   -4.4984    1.8249 H         1 <0>         0.2007
     37 H7          2.3730   -7.7122    1.6415 H         1 <0>         0.1264
     38 H8         -0.4898   -7.6940    2.5774 H         1 <0>         0.0892
     39 H9          0.6410   -9.0768    2.3946 H         1 <0>         0.1056
     40 H10         0.0740   -8.0852    4.8855 H         1 <0>         0.0897
     41 H11         0.5313   -5.7783    4.3956 H         1 <0>         0.0949
     42 H12         1.9217   -6.5683    6.3682 H         1 <0>         0.0551
     43 H13         3.2841   -6.8010    5.2467 H         1 <0>         0.0553
     44 H14         1.7925   -9.7387    4.4334 H         1 <0>         0.3744
     45 H15        -2.7911    0.2312   -1.0099 H         1 <0>         0.0802
     46 H16        -3.2168   -0.5553    0.5290 H         1 <0>         0.0783
     47 H17        -2.3495    0.9990    0.5340 H         1 <0>         0.0795
@<TRIPOS>BOND
     1    1    2 1
     2    1   32 1
     3    1   33 1
     4    1   34 1
     5    2    8 1
     6    2    3 2
     7    3    4 1
     8    3   31 1
     9    4    5 2
    10    4    6 1
    11    6    7 2
    12    6   10 1
    13    7    8 1
    14    7   35 1
    15    8    9 2
    16   10   17 1
    17   10   11 2
    18   11   12 1
    19   11   36 1
    20   12   13 am
    21   12   19 1
    22   13   14 2
    23   13   15 am
    24   15   16 1
    25   15   17 am
    26   17   18 2
    27   19   23 1
    28   19   20 1
    29   19   37 1
    30   20   21 1
    31   20   38 1
    32   20   39 1
    33   21   22 1
    34   21   30 1
    35   21   40 1
    36   22   23 1
    37   22   24 1
    38   22   41 1
    39   24   25 1
    40   24   42 1
    41   24   43 1
    42   25   26 1
    43   26   27 2
    44   26   28 1
    45   26   29 1
    46   30   44 1
    47   31   45 1
    48   31   46 1
    49   31   47 1
@<TRIPOS>MOLECULE
CHEMBL415447__1
   46    48     0     0     0
SMALL
USER_CHARGES

@<TRIPOS>ATOM
      1 C1         -0.0184    1.5028    0.0103 C.3       1 <0>        -0.1121
      2 C2          0.0021   -0.0041    0.0020 C.2       1 <0>        -0.1314
      3 C3         -1.1514   -0.6862    0.0038 C.2       1 <0>        -0.1231
      4 C4         -1.1376   -2.1610   -0.0037 C.2       1 <0>         0.4080
      5 O1         -2.1816   -2.7802   -0.0021 O.2       1 <0>        -0.3960
      6 C5          0.1605   -2.8865   -0.0139 C.2       1 <0>         0.0192
      7 C6          1.3250   -2.1826   -0.0161 C.2       1 <0>        -0.1961
      8 C7          1.2939   -0.7214   -0.0142 C.2       1 <0>         0.4146
      9 O2          2.3358   -0.0932   -0.0207 O.2       1 <0>        -0.4390
     10 C8          0.1855   -4.3570   -0.0211 C.2       1 <0>        -0.3197
     11 C9          0.7909   -5.0668    1.0026 C.2       1 <0>         0.1988
     12 N1          0.7878   -6.4171    0.9519 N.pl3     1 <0>        -0.5257
     13 C10         0.2066   -7.0830   -0.0771 C.2       1 <0>         0.6175
     14 O3          0.2340   -8.4309   -0.0757 O.3       1 <0>        -0.6825
     15 N2         -0.3822   -6.4639   -1.0741 N.2       1 <0>        -0.6572
     16 C11        -0.4387   -5.1238   -1.1154 C.2       1 <0>         0.5471
     17 O4         -0.9908   -4.5518   -2.0410 O.2       1 <0>        -0.5812
     18 C12         1.4255   -7.1772    2.0298 C.3       1 <0>         0.2953
     19 C13         0.3830   -8.0830    2.7197 C.3       1 <0>        -0.1672
     20 C14         0.7884   -7.9727    4.2148 C.3       1 <0>         0.0710
     21 C15         1.2856   -6.5065    4.2773 C.3       1 <0>         0.0866
     22 O5          1.9405   -6.2786    3.0193 O.3       1 <0>        -0.3518
     23 C16         2.2752   -6.3300    5.4308 C.3       1 <0>         0.1448
     24 O6          2.6325   -4.9512    5.5451 O.3       1 <0>        -0.7565
     25 P1          3.6587   -4.4005    6.6568 P.3       1 <0>         2.1359
     26 O7          3.1679   -4.8330    8.0804 O.2       1 <0>        -1.1946
     27 O8          5.0836   -4.9957    6.3926 O.3       1 <0>        -1.1899
     28 O9          3.7231   -2.8371    6.5793 O.3       1 <0>        -1.1713
     29 O10         1.8398   -8.8870    4.5321 O.3       1 <0>        -0.5401
     30 C17        -2.4639    0.0543    0.0142 C.3       1 <0>        -0.1109
     31 H1          1.0042    1.8801    0.0026 H         1 <0>         0.0784
     32 H2         -0.5455    1.8639   -0.8728 H         1 <0>         0.0731
     33 H3         -0.5286    1.8543    0.9071 H         1 <0>         0.0779
     34 H4          2.2712   -2.7031   -0.0232 H         1 <0>         0.1516
     35 H5          1.2580   -4.5495    1.8276 H         1 <0>         0.1685
     36 H6          2.2350   -7.7846    1.6249 H         1 <0>         0.1081
     37 H7         -0.6262   -7.7024    2.5623 H         1 <0>         0.0844
     38 H8          0.4700   -9.1114    2.3690 H         1 <0>         0.1001
     39 H9         -0.0716   -8.1240    4.8672 H         1 <0>         0.0801
     40 H10         0.4424   -5.8257    4.3937 H         1 <0>         0.0864
     41 H11         1.8134   -6.6640    6.3599 H         1 <0>         0.0478
     42 H12         3.1694   -6.9222    5.2361 H         1 <0>         0.0517
     43 H13         1.6054   -9.8162    4.4024 H         1 <0>         0.3697
     44 H14        -2.7853    0.2384   -1.0110 H         1 <0>         0.0779
     45 H15        -3.2152   -0.5451    0.5284 H         1 <0>         0.0773
     46 H16        -2.3405    1.0051    0.5326 H         1 <0>         0.0747
@<TRIPOS>BOND
     1    1    2 1
     2    1   31 1
     3    1   32 1
     4    1   33 1
     5    2    8 1
     6    2    3 2
     7    3    4 1
     8    3   30 1
     9    4    5 2
    10    4    6 1
    11    6    7 2
    12    6   10 1
    13    7    8 1
    14    7   34 1
    15    8    9 2
    16   10   16 1
    17   10   11 2
    18   11   12 1
    19   11   35 1
    20   12   13 1
    21   12   18 1
    22   13   14 1
    23   13   15 2
    24   15   16 1
    25   16   17 2
    26   18   22 1
    27   18   19 1
    28   18   36 1
    29   19   20 1
    30   19   37 1
    31   19   38 1
    32   20   21 1
    33   20   29 1
    34   20   39 1
    35   21   22 1
    36   21   23 1
    37   21   40 1
    38   23   24 1
    39   23   41 1
    40   23   42 1
    41   24   25 1
    42   25   26 2
    43   25   27 1
    44   25   28 1
    45   29   43 1
    46   30   44 1
    47   30   45 1
    48   30   46 1
@<TRIPOS>MOLECULE
CHEMBL415447__2
   48    50     0     0     0
SMALL
USER_CHARGES

@<TRIPOS>ATOM
      1 C1         -0.0184    1.5028    0.0103 C.3       1 <0>        -0.1189
      2 C2          0.0021   -0.0041    0.0020 C.2       1 <0>        -0.1247
      3 C3         -1.1526   -0.6864    0.0038 C.2       1 <0>        -0.1254
      4 C4         -1.1244   -2.1624   -0.0049 C.2       1 <0>         0.4124
      5 O1         -2.1593   -2.7967   -0.0038 O.2       1 <0>        -0.3991
      6 C5          0.1886   -2.8631   -0.0154 C.2       1 <0>        -0.0138
      7 C6          1.3386   -2.1349   -0.0169 C.2       1 <0>        -0.1520
      8 C7          1.2933   -0.7205   -0.0142 C.2       1 <0>         0.4066
      9 O2          2.3319   -0.0864   -0.0207 O.2       1 <0>        -0.4151
     10 C8          0.2431   -4.3314   -0.0236 C.2       1 <0>        -0.2567
     11 C9          0.8635   -5.0285    1.0015 C.2       1 <0>         0.2181
     12 N1          0.8928   -6.3857    0.9583 N.am      1 <0>        -0.5305
     13 C10         0.3354   -7.0679   -0.0542 C.2       1 <0>         0.7033
     14 O3          0.3900   -8.2822   -0.0445 O.2       1 <0>        -0.5329
     15 N2         -0.2815   -6.4540   -1.0781 N.am      1 <0>        -0.6533
     16 H1         -0.6729   -6.9827   -1.7910 H         1 <0>         0.4340
     17 C11        -0.3657   -5.1075   -1.1191 C.2       1 <0>         0.5667
     18 O4         -0.9273   -4.5470   -2.0413 O.2       1 <0>        -0.4962
     19 C12         1.5486   -7.1220    2.0418 C.3       1 <0>         0.3007
     20 C13         0.5284   -8.0484    2.7378 C.3       1 <0>        -0.1856
     21 C14         0.9303   -7.9173    4.2322 C.3       1 <0>         0.0768
     22 C15         1.3911   -6.4389    4.2843 C.3       1 <0>         0.0827
     23 O5          2.0407   -6.2039    3.0249 O.3       1 <0>        -0.3462
     24 C16         2.3755   -6.2298    5.4368 C.3       1 <0>         0.1458
     25 O6          2.6985   -4.8417    5.5413 O.3       1 <0>        -0.7586
     26 P1          3.7103   -4.2579    6.6493 P.3       1 <0>         2.2109
     27 O7          3.2363   -4.6861    8.0561 O.2       1 <0>        -1.1087
     28 O8          5.1297   -4.8118    6.3934 O.3       1 <0>        -1.1040
     29 O9          3.7368   -2.6507    6.5581 O.3       1 <0>        -0.8974
     30 O10         2.0038   -8.8031    4.5564 O.3       1 <0>        -0.5421
     31 C17        -2.4685    0.0479    0.0150 C.3       1 <0>        -0.1147
     32 H2          1.0042    1.8801    0.0026 H         1 <0>         0.0816
     33 H3         -0.5455    1.8639   -0.8728 H         1 <0>         0.0804
     34 H4         -0.5286    1.8543    0.9071 H         1 <0>         0.0831
     35 H5          2.2930   -2.6404   -0.0245 H         1 <0>         0.1583
     36 H6          1.3188   -4.4984    1.8249 H         1 <0>         0.1961
     37 H7          2.3730   -7.7122    1.6415 H         1 <0>         0.1298
     38 H8         -0.4898   -7.6940    2.5774 H         1 <0>         0.0929
     39 H9          0.6410   -9.0768    2.3946 H         1 <0>         0.1110
     40 H10         0.0740   -8.0852    4.8855 H         1 <0>         0.0943
     41 H11         0.5313   -5.7783    4.3956 H         1 <0>         0.0996
     42 H12         1.9217   -6.5683    6.3682 H         1 <0>         0.0740
     43 H13         3.2841   -6.8010    5.2467 H         1 <0>         0.0748
     44 H14         4.3270   -2.2301    7.1983 H         1 <0>         0.4152
     45 H15         1.7925   -9.7387    4.4334 H         1 <0>         0.3835
     46 H16        -2.7911    0.2312   -1.0099 H         1 <0>         0.0833
     47 H17        -3.2168   -0.5553    0.5290 H         1 <0>         0.0792
     48 H18        -2.3495    0.9990    0.5340 H         1 <0>         0.0805
@<TRIPOS>BOND
     1    1    2 1
     2    1   32 1
     3    1   33 1
     4    1   34 1
     5    2    8 1
     6    2    3 2
     7    3    4 1
     8    3   31 1
     9    4    5 2
    10    4    6 1
    11    6    7 2
    12    6   10 1
    13    7    8 1
    14    7   35 1
    15    8    9 2
    16   10   17 1
    17   10   11 2
    18   11   12 1
    19   11   36 1
    20   12   13 am
    21   12   19 1
    22   13   14 2
    23   13   15 am
    24   15   16 1
    25   15   17 am
    26   17   18 2
    27   19   23 1
    28   19   20 1
    29   19   37 1
    30   20   21 1
    31   20   38 1
    32   20   39 1
    33   21   22 1
    34   21   30 1
    35   21   40 1
    36   22   23 1
    37   22   24 1
    38   22   41 1
    39   24   25 1
    40   24   42 1
    41   24   43 1
    42   25   26 1
    43   26   27 2
    44   26   28 1
    45   26   29 1
    46   29   44 1
    47   30   45 1
    48   31   46 1
    49   31   47 1
    50   31   48 1
@<TRIPOS>MOLECULE
CHEMBL415447__3
   47    49     0     0     0
SMALL
USER_CHARGES

@<TRIPOS>ATOM
      1 C1         -0.0184    1.5028    0.0103 C.3       1 <0>        -0.1176
      2 C2          0.0021   -0.0041    0.0020 C.2       1 <0>        -0.1222
      3 C3         -1.1526   -0.6864    0.0038 C.2       1 <0>        -0.1271
      4 C4         -1.1244   -2.1624   -0.0049 C.2       1 <0>         0.4157
      5 O1         -2.1593   -2.7967   -0.0038 O.2       1 <0>        -0.4031
      6 C5          0.1886   -2.8631   -0.0154 C.2       1 <0>        -0.0144
      7 C6          1.3386   -2.1349   -0.0169 C.2       1 <0>        -0.1493
      8 C7          1.2933   -0.7205   -0.0142 C.2       1 <0>         0.4077
      9 O2          2.3319   -0.0864   -0.0207 O.2       1 <0>        -0.4152
     10 C8          0.2431   -4.3314   -0.0236 C.2       1 <0>        -0.2618
     11 C9          0.8635   -5.0285    1.0015 C.2       1 <0>         0.2289
     12 N1          0.8928   -6.3857    0.9583 N.am      1 <0>        -0.5176
     13 C10         0.3354   -7.0679   -0.0542 C.2       1 <0>         0.7055
     14 O3          0.3900   -8.2822   -0.0445 O.2       1 <0>        -0.5364
     15 N2         -0.2815   -6.4540   -1.0781 N.am      1 <0>        -0.6532
     16 H1         -0.6729   -6.9827   -1.7910 H         1 <0>         0.4319
     17 C11        -0.3657   -5.1075   -1.1191 C.2       1 <0>         0.5695
     18 O4         -0.9273   -4.5470   -2.0413 O.2       1 <0>        -0.5017
     19 C12         1.5486   -7.1220    2.0418 C.3       1 <0>         0.2973
     20 C13         0.5191   -7.9816    2.8187 C.3       1 <0>        -0.1894
     21 C14         1.2009   -8.1344    4.2001 C.3       1 <0>         0.0766
     22 C15         2.2046   -6.9664    4.2572 C.3       1 <0>         0.0909
     23 O5          2.0516   -6.2119    3.0433 O.3       1 <0>        -0.3493
     24 C16         1.9000   -6.0772    5.4644 C.3       1 <0>         0.1342
     25 O6          2.9033   -5.0658    5.5763 O.3       1 <0>        -0.7488
     26 P1          2.8987   -3.9508    6.7376 P.3       1 <0>         2.1238
     27 O7          1.5280   -3.1920    6.7276 O.2       1 <0>        -1.1855
     28 O8          3.1017   -4.6438    8.1279 O.3       1 <0>        -1.1861
     29 O9          4.0617   -2.9314    6.4874 O.3       1 <0>        -1.1636
     30 O10         1.8849   -9.3862    4.2847 O.3       1 <0>        -0.5522
     31 C17        -2.4685    0.0479    0.0150 C.3       1 <0>        -0.1122
     32 H2          1.0042    1.8801    0.0026 H         1 <0>         0.0814
     33 H3         -0.5455    1.8639   -0.8728 H         1 <0>         0.0776
     34 H4         -0.5286    1.8543    0.9071 H         1 <0>         0.0840
     35 H5          2.2930   -2.6404   -0.0245 H         1 <0>         0.1588
     36 H6          1.3188   -4.4984    1.8249 H         1 <0>         0.2024
     37 H7          2.3533   -7.7439    1.6495 H         1 <0>         0.1161
     38 H8         -0.4332   -7.4594    2.9105 H         1 <0>         0.0918
     39 H9          0.3844   -8.9525    2.3419 H         1 <0>         0.1047
     40 H10         0.4660   -8.0453    5.0002 H         1 <0>         0.0896
     41 H11         3.2209   -7.3542    4.3270 H         1 <0>         0.0991
     42 H12         0.9246   -5.6085    5.3336 H         1 <0>         0.0459
     43 H13         1.8930   -6.6839    6.3700 H         1 <0>         0.0564
     44 H14         1.3074  -10.1567    4.1956 H         1 <0>         0.3778
     45 H15        -2.7911    0.2312   -1.0099 H         1 <0>         0.0799
     46 H16        -3.2168   -0.5553    0.5290 H         1 <0>         0.0792
     47 H17        -2.3495    0.9990    0.5340 H         1 <0>         0.0799
@<TRIPOS>BOND
     1    1    2 1
     2    1   32 1
     3    1   33 1
     4    1   34 1
     5    2    8 1
     6    2    3 2
     7    3    4 1
     8    3   31 1
     9    4    5 2
    10    4    6 1
    11    6    7 2
    12    6   10 1
    13    7    8 1
    14    7   35 1
    15    8    9 2
    16   10   17 1
    17   10   11 2
    18   11   12 1
    19   11   36 1
    20   12   13 am
    21   12   19 1
    22   13   14 2
    23   13   15 am
    24   15   16 1
    25   15   17 am
    26   17   18 2
    27   19   23 1
    28   19   20 1
    29   19   37 1
    30   20   21 1
    31   20   38 1
    32   20   39 1
    33   21   22 1
    34   21   30 1
    35   21   40 1
    36   22   23 1
    37   22   24 1
    38   22   41 1
    39   24   25 1
    40   24   42 1
    41   24   43 1
    42   25   26 1
    43   26   27 2
    44   26   28 1
    45   26   29 1
    46   30   44 1
    47   31   45 1
    48   31   46 1
    49   31   47 1
@<TRIPOS>MOLECULE
CHEMBL415447__4
   48    50     0     0     0
SMALL
USER_CHARGES

@<TRIPOS>ATOM
      1 C1         -0.0184    1.5028    0.0103 C.3       1 <0>        -0.1185
      2 C2          0.0021   -0.0041    0.0020 C.2       1 <0>        -0.1259
      3 C3         -1.1526   -0.6864    0.0038 C.2       1 <0>        -0.1232
      4 C4         -1.1244   -2.1624   -0.0049 C.2       1 <0>         0.4125
      5 O1         -2.1593   -2.7967   -0.0038 O.2       1 <0>        -0.3979
      6 C5          0.1886   -2.8631   -0.0154 C.2       1 <0>        -0.0129
      7 C6          1.3386   -2.1349   -0.0169 C.2       1 <0>        -0.1523
      8 C7          1.2933   -0.7205   -0.0142 C.2       1 <0>         0.4080
      9 O2          2.3319   -0.0864   -0.0207 O.2       1 <0>        -0.4173
     10 C8          0.2431   -4.3314   -0.0236 C.2       1 <0>        -0.2537
     11 C9          0.8635   -5.0285    1.0015 C.2       1 <0>         0.2204
     12 N1          0.8928   -6.3857    0.9583 N.am      1 <0>        -0.5207
     13 C10         0.3354   -7.0679   -0.0542 C.2       1 <0>         0.7058
     14 O3          0.3900   -8.2822   -0.0445 O.2       1 <0>        -0.5317
     15 N2         -0.2815   -6.4540   -1.0781 N.am      1 <0>        -0.6521
     16 H1         -0.6729   -6.9827   -1.7910 H         1 <0>         0.4350
     17 C11        -0.3657   -5.1075   -1.1191 C.2       1 <0>         0.5669
     18 O4         -0.9273   -4.5470   -2.0413 O.2       1 <0>        -0.4939
     19 C12         1.5486   -7.1220    2.0418 C.3       1 <0>         0.3028
     20 C13         0.5191   -7.9816    2.8187 C.3       1 <0>        -0.1920
     21 C14         1.2009   -8.1344    4.2001 C.3       1 <0>         0.0782
     22 C15         2.2046   -6.9664    4.2572 C.3       1 <0>         0.0893
     23 O5          2.0516   -6.2119    3.0433 O.3       1 <0>        -0.3566
     24 C16         1.9000   -6.0772    5.4644 C.3       1 <0>         0.1399
     25 O6          2.9033   -5.0658    5.5763 O.3       1 <0>        -0.7522
     26 P1          2.8987   -3.9508    6.7376 P.3       1 <0>         2.2097
     27 O7          1.5470   -3.2025    6.7277 O.2       1 <0>        -1.1057
     28 O8          3.0989   -4.6342    8.1087 O.3       1 <0>        -1.1051
     29 O9          4.0939   -2.9032    6.4805 O.3       1 <0>        -0.8961
     30 O10         1.8849   -9.3862    4.2847 O.3       1 <0>        -0.5524
     31 C17        -2.4685    0.0479    0.0150 C.3       1 <0>        -0.1149
     32 H2          1.0042    1.8801    0.0026 H         1 <0>         0.0811
     33 H3         -0.5455    1.8639   -0.8728 H         1 <0>         0.0800
     34 H4         -0.5286    1.8543    0.9071 H         1 <0>         0.0838
     35 H5          2.2930   -2.6404   -0.0245 H         1 <0>         0.1574
     36 H6          1.3188   -4.4984    1.8249 H         1 <0>         0.1976
     37 H7          2.3533   -7.7439    1.6495 H         1 <0>         0.1194
     38 H8         -0.4332   -7.4594    2.9105 H         1 <0>         0.0948
     39 H9          0.3844   -8.9525    2.3419 H         1 <0>         0.1102
     40 H10         0.4660   -8.0453    5.0002 H         1 <0>         0.0912
     41 H11         3.2209   -7.3542    4.3270 H         1 <0>         0.1046
     42 H12         0.9246   -5.6085    5.3336 H         1 <0>         0.0655
     43 H13         1.8930   -6.6839    6.3700 H         1 <0>         0.0760
     44 H14         4.1513   -2.2015    7.1435 H         1 <0>         0.4154
     45 H15         1.3074  -10.1567    4.1956 H         1 <0>         0.3855
     46 H16        -2.7911    0.2312   -1.0099 H         1 <0>         0.0830
     47 H17        -3.2168   -0.5553    0.5290 H         1 <0>         0.0800
     48 H18        -2.3495    0.9990    0.5340 H         1 <0>         0.0810
@<TRIPOS>BOND
     1    1    2 1
     2    1   32 1
     3    1   33 1
     4    1   34 1
     5    2    8 1
     6    2    3 2
     7    3    4 1
     8    3   31 1
     9    4    5 2
    10    4    6 1
    11    6    7 2
    12    6   10 1
    13    7    8 1
    14    7   35 1
    15    8    9 2
    16   10   17 1
    17   10   11 2
    18   11   12 1
    19   11   36 1
    20   12   13 am
    21   12   19 1
    22   13   14 2
    23   13   15 am
    24   15   16 1
    25   15   17 am
    26   17   18 2
    27   19   23 1
    28   19   20 1
    29   19   37 1
    30   20   21 1
    31   20   38 1
    32   20   39 1
    33   21   22 1
    34   21   30 1
    35   21   40 1
    36   22   23 1
    37   22   24 1
    38   22   41 1
    39   24   25 1
    40   24   42 1
    41   24   43 1
    42   25   26 1
    43   26   27 2
    44   26   28 1
    45   26   29 1
    46   29   44 1
    47   30   45 1
    48   31   46 1
    49   31   47 1
    50   31   48 1
@<TRIPOS>MOLECULE
CHEMBL415447__5
   46    48     0     0     0
SMALL
USER_CHARGES

@<TRIPOS>ATOM
      1 C1         -0.0184    1.5028    0.0103 C.3       1 <0>        -0.1116
      2 C2          0.0021   -0.0041    0.0020 C.2       1 <0>        -0.1328
      3 C3         -1.1514   -0.6862    0.0038 C.2       1 <0>        -0.1208
      4 C4         -1.1376   -2.1610   -0.0037 C.2       1 <0>         0.4080
      5 O1         -2.1816   -2.7802   -0.0021 O.2       1 <0>        -0.3948
      6 C5          0.1605   -2.8865   -0.0139 C.2       1 <0>         0.0201
      7 C6          1.3250   -2.1826   -0.0161 C.2       1 <0>        -0.1964
      8 C7          1.2939   -0.7214   -0.0142 C.2       1 <0>         0.4163
      9 O2          2.3358   -0.0932   -0.0207 O.2       1 <0>        -0.4412
     10 C8          0.1855   -4.3570   -0.0211 C.2       1 <0>        -0.3167
     11 C9          0.7909   -5.0668    1.0026 C.2       1 <0>         0.2010
     12 N1          0.7878   -6.4171    0.9519 N.pl3     1 <0>        -0.5157
     13 C10         0.2066   -7.0830   -0.0771 C.2       1 <0>         0.6195
     14 O3          0.2340   -8.4309   -0.0757 O.3       1 <0>        -0.6814
     15 N2         -0.3822   -6.4639   -1.0741 N.2       1 <0>        -0.6551
     16 C11        -0.4387   -5.1238   -1.1154 C.2       1 <0>         0.5476
     17 O4         -0.9908   -4.5518   -2.0410 O.2       1 <0>        -0.5791
     18 C12         1.4255   -7.1772    2.0298 C.3       1 <0>         0.2972
     19 C13         0.3753   -8.0166    2.8010 C.3       1 <0>        -0.1769
     20 C14         1.0535   -8.1961    4.1810 C.3       1 <0>         0.0735
     21 C15         2.0858   -7.0538    4.2460 C.3       1 <0>         0.0916
     22 O5          1.9511   -6.2869    3.0377 O.3       1 <0>        -0.3577
     23 C16         1.8036   -6.1660    5.4597 C.3       1 <0>         0.1378
     24 O6          2.8316   -5.1805    5.5784 O.3       1 <0>        -0.7501
     25 P1          2.8549   -4.0741    6.7477 P.3       1 <0>         2.1316
     26 O7          1.5034   -3.2816    6.7437 O.2       1 <0>        -1.1887
     27 O8          3.0411   -4.7819    8.1329 O.3       1 <0>        -1.1916
     28 O9          4.0427   -3.0820    6.5043 O.3       1 <0>        -1.1687
     29 O10         1.7064   -9.4650    4.2562 O.3       1 <0>        -0.5561
     30 C17        -2.4639    0.0543    0.0142 C.3       1 <0>        -0.1112
     31 H1          1.0042    1.8801    0.0026 H         1 <0>         0.0779
     32 H2         -0.5455    1.8639   -0.8728 H         1 <0>         0.0727
     33 H3         -0.5286    1.8543    0.9071 H         1 <0>         0.0785
     34 H4          2.2712   -2.7031   -0.0232 H         1 <0>         0.1508
     35 H5          1.2580   -4.5495    1.8276 H         1 <0>         0.1698
     36 H6          2.2145   -7.8159    1.6327 H         1 <0>         0.0983
     37 H7         -0.5638   -7.4717    2.8970 H         1 <0>         0.0834
     38 H8          0.2165   -8.9804    2.3174 H         1 <0>         0.1041
     39 H9          0.3213   -8.0946    4.9820 H         1 <0>         0.0802
     40 H10         3.0922   -7.4670    4.3125 H         1 <0>         0.0889
     41 H11         0.8401   -5.6724    5.3327 H         1 <0>         0.0442
     42 H12         1.7819   -6.7788    6.3609 H         1 <0>         0.0493
     43 H13         1.1100  -10.2204    4.1619 H         1 <0>         0.3736
     44 H14        -2.7853    0.2384   -1.0110 H         1 <0>         0.0776
     45 H15        -3.2152   -0.5451    0.5284 H         1 <0>         0.0781
     46 H16        -2.3405    1.0051    0.5326 H         1 <0>         0.0752
@<TRIPOS>BOND
     1    1    2 1
     2    1   31 1
     3    1   32 1
     4    1   33 1
     5    2    8 1
     6    2    3 2
     7    3    4 1
     8    3   30 1
     9    4    5 2
    10    4    6 1
    11    6    7 2
    12    6   10 1
    13    7    8 1
    14    7   34 1
    15    8    9 2
    16   10   16 1
    17   10   11 2
    18   11   12 1
    19   11   35 1
    20   12   13 1
    21   12   18 1
    22   13   14 1
    23   13   15 2
    24   15   16 1
    25   16   17 2
    26   18   22 1
    27   18   19 1
    28   18   36 1
    29   19   20 1
    30   19   37 1
    31   19   38 1
    32   20   21 1
    33   20   29 1
    34   20   39 1
    35   21   22 1
    36   21   23 1
    37   21   40 1
    38   23   24 1
    39   23   41 1
    40   23   42 1
    41   24   25 1
    42   25   26 2
    43   25   27 1
    44   25   28 1
    45   29   43 1
    46   30   44 1
    47   30   45 1
    48   30   46 1
@<TRIPOS>MOLECULE
CHEMBL415447__6
   47    49     0     0     0
SMALL
USER_CHARGES

@<TRIPOS>ATOM
      1 C1         -0.0184    1.5028    0.0103 C.3       1 <0>        -0.1180
      2 C2          0.0021   -0.0041    0.0020 C.2       1 <0>        -0.1213
      3 C3         -1.1526   -0.6864    0.0038 C.2       1 <0>        -0.1288
      4 C4         -1.1244   -2.1624   -0.0049 C.2       1 <0>         0.4153
      5 O1         -2.1593   -2.7967   -0.0038 O.2       1 <0>        -0.4037
      6 C5          0.1886   -2.8631   -0.0154 C.2       1 <0>        -0.0152
      7 C6          1.3386   -2.1349   -0.0169 C.2       1 <0>        -0.1491
      8 C7          1.2933   -0.7205   -0.0142 C.2       1 <0>         0.4063
      9 O2          2.3319   -0.0864   -0.0207 O.2       1 <0>        -0.4130
     10 C8          0.2431   -4.3314   -0.0236 C.2       1 <0>        -0.2634
     11 C9          0.8635   -5.0285    1.0015 C.2       1 <0>         0.2262
     12 N1          0.8928   -6.3857    0.9583 N.am      1 <0>        -0.5266
     13 C10         0.3354   -7.0679   -0.0542 C.2       1 <0>         0.7035
     14 O3          0.3900   -8.2822   -0.0445 O.2       1 <0>        -0.5374
     15 N2         -0.2815   -6.4540   -1.0781 N.am      1 <0>        -0.6541
     16 H1         -0.6729   -6.9827   -1.7910 H         1 <0>         0.4311
     17 C11        -0.3657   -5.1075   -1.1191 C.2       1 <0>         0.5693
     18 O4         -0.9273   -4.5470   -2.0413 O.2       1 <0>        -0.5034
     19 C12         1.5486   -7.1220    2.0418 C.3       1 <0>         0.2929
     20 C13         0.5284   -8.0484    2.7378 C.3       1 <0>        -0.1865
     21 C14         0.9303   -7.9173    4.2322 C.3       1 <0>         0.0772
     22 C15         1.3911   -6.4389    4.2843 C.3       1 <0>         0.0831
     23 O5          2.0407   -6.2039    3.0249 O.3       1 <0>        -0.3379
     24 C16         2.3755   -6.2298    5.4368 C.3       1 <0>         0.1362
     25 O6          2.6985   -4.8417    5.5413 O.3       1 <0>        -0.7514
     26 P1          3.7103   -4.2579    6.6493 P.3       1 <0>         2.1253
     27 O7          3.2297   -4.6922    8.0758 O.2       1 <0>        -1.1875
     28 O8          5.1496   -4.8195    6.3898 O.3       1 <0>        -1.1851
     29 O9          3.7361   -2.6940    6.5606 O.3       1 <0>        -1.1645
     30 O10        -0.1923   -8.1374    5.0886 O.3       1 <0>        -0.5413
     31 C17        -2.4685    0.0479    0.0150 C.3       1 <0>        -0.1122
     32 H2          1.0042    1.8801    0.0026 H         1 <0>         0.0819
     33 H3         -0.5455    1.8639   -0.8728 H         1 <0>         0.0780
     34 H4         -0.5286    1.8543    0.9071 H         1 <0>         0.0834
     35 H5          2.2930   -2.6404   -0.0245 H         1 <0>         0.1596
     36 H6          1.3188   -4.4984    1.8249 H         1 <0>         0.2009
     37 H7          2.3730   -7.7122    1.6415 H         1 <0>         0.1285
     38 H8         -0.4898   -7.6940    2.5774 H         1 <0>         0.0905
     39 H9          0.6410   -9.0768    2.3946 H         1 <0>         0.1048
     40 H10         1.7491   -8.5930    4.4795 H         1 <0>         0.0906
     41 H11         0.5313   -5.7783    4.3956 H         1 <0>         0.0924
     42 H12         1.9217   -6.5683    6.3682 H         1 <0>         0.0623
     43 H13         3.2841   -6.8010    5.2467 H         1 <0>         0.0446
     44 H14        -0.5812   -9.0191    5.0086 H         1 <0>         0.3784
     45 H15        -2.7911    0.2312   -1.0099 H         1 <0>         0.0803
     46 H16        -3.2168   -0.5553    0.5290 H         1 <0>         0.0785
     47 H17        -2.3495    0.9990    0.5340 H         1 <0>         0.0795
@<TRIPOS>BOND
     1    1    2 1
     2    1   32 1
     3    1   33 1
     4    1   34 1
     5    2    8 1
     6    2    3 2
     7    3    4 1
     8    3   31 1
     9    4    5 2
    10    4    6 1
    11    6    7 2
    12    6   10 1
    13    7    8 1
    14    7   35 1
    15    8    9 2
    16   10   17 1
    17   10   11 2
    18   11   12 1
    19   11   36 1
    20   12   13 am
    21   12   19 1
    22   13   14 2
    23   13   15 am
    24   15   16 1
    25   15   17 am
    26   17   18 2
    27   19   23 1
    28   19   20 1
    29   19   37 1
    30   20   21 1
    31   20   38 1
    32   20   39 1
    33   21   22 1
    34   21   30 1
    35   21   40 1
    36   22   23 1
    37   22   24 1
    38   22   41 1
    39   24   25 1
    40   24   42 1
    41   24   43 1
    42   25   26 1
    43   26   27 2
    44   26   28 1
    45   26   29 1
    46   30   44 1
    47   31   45 1
    48   31   46 1
    49   31   47 1
@<TRIPOS>MOLECULE
CHEMBL415447__7
   48    50     0     0     0
SMALL
USER_CHARGES

@<TRIPOS>ATOM
      1 C1         -0.0184    1.5028    0.0103 C.3       1 <0>        -0.1188
      2 C2          0.0021   -0.0041    0.0020 C.2       1 <0>        -0.1252
      3 C3         -1.1526   -0.6864    0.0038 C.2       1 <0>        -0.1248
      4 C4         -1.1244   -2.1624   -0.0049 C.2       1 <0>         0.4120
      5 O1         -2.1593   -2.7967   -0.0038 O.2       1 <0>        -0.3984
      6 C5          0.1886   -2.8631   -0.0154 C.2       1 <0>        -0.0136
      7 C6          1.3386   -2.1349   -0.0169 C.2       1 <0>        -0.1521
      8 C7          1.2933   -0.7205   -0.0142 C.2       1 <0>         0.4068
      9 O2          2.3319   -0.0864   -0.0207 O.2       1 <0>        -0.4154
     10 C8          0.2431   -4.3314   -0.0236 C.2       1 <0>        -0.2554
     11 C9          0.8635   -5.0285    1.0015 C.2       1 <0>         0.2180
     12 N1          0.8928   -6.3857    0.9583 N.am      1 <0>        -0.5298
     13 C10         0.3354   -7.0679   -0.0542 C.2       1 <0>         0.7041
     14 O3          0.3900   -8.2822   -0.0445 O.2       1 <0>        -0.5328
     15 N2         -0.2815   -6.4540   -1.0781 N.am      1 <0>        -0.6530
     16 H1         -0.6729   -6.9827   -1.7910 H         1 <0>         0.4343
     17 C11        -0.3657   -5.1075   -1.1191 C.2       1 <0>         0.5668
     18 O4         -0.9273   -4.5470   -2.0413 O.2       1 <0>        -0.4955
     19 C12         1.5486   -7.1220    2.0418 C.3       1 <0>         0.2983
     20 C13         0.5284   -8.0484    2.7378 C.3       1 <0>        -0.1886
     21 C14         0.9303   -7.9173    4.2322 C.3       1 <0>         0.0785
     22 C15         1.3911   -6.4389    4.2843 C.3       1 <0>         0.0811
     23 O5          2.0407   -6.2039    3.0249 O.3       1 <0>        -0.3449
     24 C16         2.3755   -6.2298    5.4368 C.3       1 <0>         0.1422
     25 O6          2.6985   -4.8417    5.5413 O.3       1 <0>        -0.7547
     26 P1          3.7103   -4.2579    6.6493 P.3       1 <0>         2.2103
     27 O7          3.2363   -4.6861    8.0561 O.2       1 <0>        -1.1073
     28 O8          5.1297   -4.8118    6.3934 O.3       1 <0>        -1.1040
     29 O9          3.7368   -2.6507    6.5581 O.3       1 <0>        -0.8967
     30 O10        -0.1923   -8.1374    5.0886 O.3       1 <0>        -0.5439
     31 C17        -2.4685    0.0479    0.0150 C.3       1 <0>        -0.1148
     32 H2          1.0042    1.8801    0.0026 H         1 <0>         0.0816
     33 H3         -0.5455    1.8639   -0.8728 H         1 <0>         0.0804
     34 H4         -0.5286    1.8543    0.9071 H         1 <0>         0.0831
     35 H5          2.2930   -2.6404   -0.0245 H         1 <0>         0.1583
     36 H6          1.3188   -4.4984    1.8249 H         1 <0>         0.1963
     37 H7          2.3730   -7.7122    1.6415 H         1 <0>         0.1319
     38 H8         -0.4898   -7.6940    2.5774 H         1 <0>         0.0941
     39 H9          0.6410   -9.0768    2.3946 H         1 <0>         0.1104
     40 H10         1.7491   -8.5930    4.4795 H         1 <0>         0.0933
     41 H11         0.5313   -5.7783    4.3956 H         1 <0>         0.0974
     42 H12         1.9217   -6.5683    6.3682 H         1 <0>         0.0806
     43 H13         3.2841   -6.8010    5.2467 H         1 <0>         0.0649
     44 H14         4.3270   -2.2301    7.1983 H         1 <0>         0.4155
     45 H15        -0.5812   -9.0191    5.0086 H         1 <0>         0.3863
     46 H16        -2.7911    0.2312   -1.0099 H         1 <0>         0.0834
     47 H17        -3.2168   -0.5553    0.5290 H         1 <0>         0.0794
     48 H18        -2.3495    0.9990    0.5340 H         1 <0>         0.0806
@<TRIPOS>BOND
     1    1    2 1
     2    1   32 1
     3    1   33 1
     4    1   34 1
     5    2    8 1
     6    2    3 2
     7    3    4 1
     8    3   31 1
     9    4    5 2
    10    4    6 1
    11    6    7 2
    12    6   10 1
    13    7    8 1
    14    7   35 1
    15    8    9 2
    16   10   17 1
    17   10   11 2
    18   11   12 1
    19   11   36 1
    20   12   13 am
    21   12   19 1
    22   13   14 2
    23   13   15 am
    24   15   16 1
    25   15   17 am
    26   17   18 2
    27   19   23 1
    28   19   20 1
    29   19   37 1
    30   20   21 1
    31   20   38 1
    32   20   39 1
    33   21   22 1
    34   21   30 1
    35   21   40 1
    36   22   23 1
    37   22   24 1
    38   22   41 1
    39   24   25 1
    40   24   42 1
    41   24   43 1
    42   25   26 1
    43   26   27 2
    44   26   28 1
    45   26   29 1
    46   29   44 1
    47   30   45 1
    48   31   46 1
    49   31   47 1
    50   31   48 1
@<TRIPOS>MOLECULE
CHEMBL415447__8
   46    48     0     0     0
SMALL
USER_CHARGES

@<TRIPOS>ATOM
      1 C1         -0.0184    1.5028    0.0103 C.3       1 <0>        -0.1120
      2 C2          0.0021   -0.0041    0.0020 C.2       1 <0>        -0.1319
      3 C3         -1.1514   -0.6862    0.0038 C.2       1 <0>        -0.1225
      4 C4         -1.1376   -2.1610   -0.0037 C.2       1 <0>         0.4076
      5 O1         -2.1816   -2.7802   -0.0021 O.2       1 <0>        -0.3953
      6 C5          0.1605   -2.8865   -0.0139 C.2       1 <0>         0.0194
      7 C6          1.3250   -2.1826   -0.0161 C.2       1 <0>        -0.1963
      8 C7          1.2939   -0.7214   -0.0142 C.2       1 <0>         0.4149
      9 O2          2.3358   -0.0932   -0.0207 O.2       1 <0>        -0.4393
     10 C8          0.1855   -4.3570   -0.0211 C.2       1 <0>        -0.3184
     11 C9          0.7909   -5.0668    1.0026 C.2       1 <0>         0.1988
     12 N1          0.7878   -6.4171    0.9519 N.pl3     1 <0>        -0.5248
     13 C10         0.2066   -7.0830   -0.0771 C.2       1 <0>         0.6181
     14 O3          0.2340   -8.4309   -0.0757 O.3       1 <0>        -0.6825
     15 N2         -0.3822   -6.4639   -1.0741 N.2       1 <0>        -0.6566
     16 C11        -0.4387   -5.1238   -1.1154 C.2       1 <0>         0.5473
     17 O4         -0.9908   -4.5518   -2.0410 O.2       1 <0>        -0.5805
     18 C12         1.4255   -7.1772    2.0298 C.3       1 <0>         0.2920
     19 C13         0.3830   -8.0830    2.7197 C.3       1 <0>        -0.1695
     20 C14         0.7884   -7.9727    4.2148 C.3       1 <0>         0.0719
     21 C15         1.2856   -6.5065    4.2773 C.3       1 <0>         0.0866
     22 O5          1.9405   -6.2786    3.0193 O.3       1 <0>        -0.3507
     23 C16         2.2752   -6.3300    5.4308 C.3       1 <0>         0.1404
     24 O6          2.6325   -4.9512    5.5451 O.3       1 <0>        -0.7519
     25 P1          3.6587   -4.4005    6.6568 P.3       1 <0>         2.1335
     26 O7          3.1679   -4.8330    8.0804 O.2       1 <0>        -1.1928
     27 O8          5.0836   -4.9957    6.3926 O.3       1 <0>        -1.1895
     28 O9          3.7231   -2.8371    6.5793 O.3       1 <0>        -1.1694
     29 O10        -0.3390   -8.1711    5.0701 O.3       1 <0>        -0.5467
     30 C17        -2.4639    0.0543    0.0142 C.3       1 <0>        -0.1111
     31 H1          1.0042    1.8801    0.0026 H         1 <0>         0.0783
     32 H2         -0.5455    1.8639   -0.8728 H         1 <0>         0.0730
     33 H3         -0.5286    1.8543    0.9071 H         1 <0>         0.0779
     34 H4          2.2712   -2.7031   -0.0232 H         1 <0>         0.1515
     35 H5          1.2580   -4.5495    1.8276 H         1 <0>         0.1687
     36 H6          2.2350   -7.7846    1.6249 H         1 <0>         0.1102
     37 H7         -0.6262   -7.7024    2.5623 H         1 <0>         0.0862
     38 H8          0.4700   -9.1114    2.3690 H         1 <0>         0.0989
     39 H9          1.5903   -8.6701    4.4569 H         1 <0>         0.0826
     40 H10         0.4424   -5.8257    4.3937 H         1 <0>         0.0844
     41 H11         1.8134   -6.6640    6.3599 H         1 <0>         0.0553
     42 H12         3.1694   -6.9222    5.2361 H         1 <0>         0.0407
     43 H13        -0.7496   -9.0424    4.9839 H         1 <0>         0.3735
     44 H14        -2.7853    0.2384   -1.0110 H         1 <0>         0.0779
     45 H15        -3.2152   -0.5451    0.5284 H         1 <0>         0.0774
     46 H16        -2.3405    1.0051    0.5326 H         1 <0>         0.0748
@<TRIPOS>BOND
     1    1    2 1
     2    1   31 1
     3    1   32 1
     4    1   33 1
     5    2    8 1
     6    2    3 2
     7    3    4 1
     8    3   30 1
     9    4    5 2
    10    4    6 1
    11    6    7 2
    12    6   10 1
    13    7    8 1
    14    7   34 1
    15    8    9 2
    16   10   16 1
    17   10   11 2
    18   11   12 1
    19   11   35 1
    20   12   13 1
    21   12   18 1
    22   13   14 1
    23   13   15 2
    24   15   16 1
    25   16   17 2
    26   18   22 1
    27   18   19 1
    28   18   36 1
    29   19   20 1
    30   19   37 1
    31   19   38 1
    32   20   21 1
    33   20   29 1
    34   20   39 1
    35   21   22 1
    36   21   23 1
    37   21   40 1
    38   23   24 1
    39   23   41 1
    40   23   42 1
    41   24   25 1
    42   25   26 2
    43   25   27 1
    44   25   28 1
    45   29   43 1
    46   30   44 1
    47   30   45 1
    48   30   46 1
@<TRIPOS>MOLECULE
CHEMBL415447__9
   47    49     0     0     0
SMALL
USER_CHARGES

@<TRIPOS>ATOM
      1 C1         -0.0184    1.5028    0.0103 C.3       1 <0>        -0.1175
      2 C2          0.0021   -0.0041    0.0020 C.2       1 <0>        -0.1224
      3 C3         -1.1526   -0.6864    0.0038 C.2       1 <0>        -0.1268
      4 C4         -1.1244   -2.1624   -0.0049 C.2       1 <0>         0.4155
      5 O1         -2.1593   -2.7967   -0.0038 O.2       1 <0>        -0.4029
      6 C5          0.1886   -2.8631   -0.0154 C.2       1 <0>        -0.0142
      7 C6          1.3386   -2.1349   -0.0169 C.2       1 <0>        -0.1494
      8 C7          1.2933   -0.7205   -0.0142 C.2       1 <0>         0.4079
      9 O2          2.3319   -0.0864   -0.0207 O.2       1 <0>        -0.4154
     10 C8          0.2431   -4.3314   -0.0236 C.2       1 <0>        -0.2616
     11 C9          0.8635   -5.0285    1.0015 C.2       1 <0>         0.2299
     12 N1          0.8928   -6.3857    0.9583 N.am      1 <0>        -0.5166
     13 C10         0.3354   -7.0679   -0.0542 C.2       1 <0>         0.7061
     14 O3          0.3900   -8.2822   -0.0445 O.2       1 <0>        -0.5377
     15 N2         -0.2815   -6.4540   -1.0781 N.am      1 <0>        -0.6532
     16 H1         -0.6729   -6.9827   -1.7910 H         1 <0>         0.4319
     17 C11        -0.3657   -5.1075   -1.1191 C.2       1 <0>         0.5695
     18 O4         -0.9273   -4.5470   -2.0413 O.2       1 <0>        -0.5014
     19 C12         1.5486   -7.1220    2.0418 C.3       1 <0>         0.2950
     20 C13         0.5191   -7.9816    2.8187 C.3       1 <0>        -0.1930
     21 C14         1.2009   -8.1344    4.2001 C.3       1 <0>         0.0810
     22 C15         2.2046   -6.9664    4.2572 C.3       1 <0>         0.0861
     23 O5          2.0516   -6.2119    3.0433 O.3       1 <0>        -0.3487
     24 C16         1.9000   -6.0772    5.4644 C.3       1 <0>         0.1449
     25 O6          2.9033   -5.0658    5.5763 O.3       1 <0>        -0.7568
     26 P1          2.8987   -3.9508    6.7376 P.3       1 <0>         2.1285
     27 O7          1.5280   -3.1920    6.7276 O.2       1 <0>        -1.1875
     28 O8          3.1017   -4.6438    8.1279 O.3       1 <0>        -1.1887
     29 O9          4.0617   -2.9314    6.4874 O.3       1 <0>        -1.1672
     30 O10         0.2374   -8.0176    5.2490 O.3       1 <0>        -0.5360
     31 C17        -2.4685    0.0479    0.0150 C.3       1 <0>        -0.1123
     32 H2          1.0042    1.8801    0.0026 H         1 <0>         0.0814
     33 H3         -0.5455    1.8639   -0.8728 H         1 <0>         0.0775
     34 H4         -0.5286    1.8543    0.9071 H         1 <0>         0.0840
     35 H5          2.2930   -2.6404   -0.0245 H         1 <0>         0.1587
     36 H6          1.3188   -4.4984    1.8249 H         1 <0>         0.2025
     37 H7          2.3533   -7.7439    1.6495 H         1 <0>         0.1148
     38 H8         -0.4332   -7.4594    2.9105 H         1 <0>         0.0943
     39 H9          0.3844   -8.9525    2.3419 H         1 <0>         0.1015
     40 H10         1.7226   -9.0892    4.2646 H         1 <0>         0.0815
     41 H11         3.2209   -7.3542    4.3270 H         1 <0>         0.0967
     42 H12         0.9246   -5.6085    5.3336 H         1 <0>         0.0483
     43 H13         1.8930   -6.6839    6.3700 H         1 <0>         0.0592
     44 H14        -0.4530   -8.6943    5.2261 H         1 <0>         0.3735
     45 H15        -2.7911    0.2312   -1.0099 H         1 <0>         0.0799
     46 H16        -3.2168   -0.5553    0.5290 H         1 <0>         0.0793
     47 H17        -2.3495    0.9990    0.5340 H         1 <0>         0.0800
@<TRIPOS>BOND
     1    1    2 1
     2    1   32 1
     3    1   33 1
     4    1   34 1
     5    2    8 1
     6    2    3 2
     7    3    4 1
     8    3   31 1
     9    4    5 2
    10    4    6 1
    11    6    7 2
    12    6   10 1
    13    7    8 1
    14    7   35 1
    15    8    9 2
    16   10   17 1
    17   10   11 2
    18   11   12 1
    19   11   36 1
    20   12   13 am
    21   12   19 1
    22   13   14 2
    23   13   15 am
    24   15   16 1
    25   15   17 am
    26   17   18 2
    27   19   23 1
    28   19   20 1
    29   19   37 1
    30   20   21 1
    31   20   38 1
    32   20   39 1
    33   21   22 1
    34   21   30 1
    35   21   40 1
    36   22   23 1
    37   22   24 1
    38   22   41 1
    39   24   25 1
    40   24   42 1
    41   24   43 1
    42   25   26 1
    43   26   27 2
    44   26   28 1
    45   26   29 1
    46   30   44 1
    47   31   45 1
    48   31   46 1
    49   31   47 1
@<TRIPOS>MOLECULE
CHEMBL415447__10
   48    50     0     0     0
SMALL
USER_CHARGES

@<TRIPOS>ATOM
      1 C1         -0.0184    1.5028    0.0103 C.3       1 <0>        -0.1184
      2 C2          0.0021   -0.0041    0.0020 C.2       1 <0>        -0.1261
      3 C3         -1.1526   -0.6864    0.0038 C.2       1 <0>        -0.1229
      4 C4         -1.1244   -2.1624   -0.0049 C.2       1 <0>         0.4123
      5 O1         -2.1593   -2.7967   -0.0038 O.2       1 <0>        -0.3976
      6 C5          0.1886   -2.8631   -0.0154 C.2       1 <0>        -0.0128
      7 C6          1.3386   -2.1349   -0.0169 C.2       1 <0>        -0.1524
      8 C7          1.2933   -0.7205   -0.0142 C.2       1 <0>         0.4082
      9 O2          2.3319   -0.0864   -0.0207 O.2       1 <0>        -0.4175
     10 C8          0.2431   -4.3314   -0.0236 C.2       1 <0>        -0.2535
     11 C9          0.8635   -5.0285    1.0015 C.2       1 <0>         0.2214
     12 N1          0.8928   -6.3857    0.9583 N.am      1 <0>        -0.5197
     13 C10         0.3354   -7.0679   -0.0542 C.2       1 <0>         0.7064
     14 O3          0.3900   -8.2822   -0.0445 O.2       1 <0>        -0.5330
     15 N2         -0.2815   -6.4540   -1.0781 N.am      1 <0>        -0.6521
     16 H1         -0.6729   -6.9827   -1.7910 H         1 <0>         0.4350
     17 C11        -0.3657   -5.1075   -1.1191 C.2       1 <0>         0.5669
     18 O4         -0.9273   -4.5470   -2.0413 O.2       1 <0>        -0.4936
     19 C12         1.5486   -7.1220    2.0418 C.3       1 <0>         0.3006
     20 C13         0.5191   -7.9816    2.8187 C.3       1 <0>        -0.1953
     21 C14         1.2009   -8.1344    4.2001 C.3       1 <0>         0.0815
     22 C15         2.2046   -6.9664    4.2572 C.3       1 <0>         0.0868
     23 O5          2.0516   -6.2119    3.0433 O.3       1 <0>        -0.3563
     24 C16         1.9000   -6.0772    5.4644 C.3       1 <0>         0.1495
     25 O6          2.9033   -5.0658    5.5763 O.3       1 <0>        -0.7592
     26 P1          2.8987   -3.9508    6.7376 P.3       1 <0>         2.2108
     27 O7          1.5470   -3.2025    6.7277 O.2       1 <0>        -1.1069
     28 O8          3.0989   -4.6342    8.1087 O.3       1 <0>        -1.1068
     29 O9          4.0939   -2.9032    6.4805 O.3       1 <0>        -0.8973
     30 O10         0.2374   -8.0176    5.2490 O.3       1 <0>        -0.5437
     31 C17        -2.4685    0.0479    0.0150 C.3       1 <0>        -0.1149
     32 H2          1.0042    1.8801    0.0026 H         1 <0>         0.0811
     33 H3         -0.5455    1.8639   -0.8728 H         1 <0>         0.0799
     34 H4         -0.5286    1.8543    0.9071 H         1 <0>         0.0838
     35 H5          2.2930   -2.6404   -0.0245 H         1 <0>         0.1573
     36 H6          1.3188   -4.4984    1.8249 H         1 <0>         0.1977
     37 H7          2.3533   -7.7439    1.6495 H         1 <0>         0.1183
     38 H8         -0.4332   -7.4594    2.9105 H         1 <0>         0.0971
     39 H9          0.3844   -8.9525    2.3419 H         1 <0>         0.1073
     40 H10         1.7226   -9.0892    4.2646 H         1 <0>         0.0879
     41 H11         3.2209   -7.3542    4.3270 H         1 <0>         0.1018
     42 H12         0.9246   -5.6085    5.3336 H         1 <0>         0.0676
     43 H13         1.8930   -6.6839    6.3700 H         1 <0>         0.0786
     44 H14         4.1513   -2.2015    7.1435 H         1 <0>         0.4147
     45 H15        -0.4530   -8.6943    5.2261 H         1 <0>         0.3832
     46 H16        -2.7911    0.2312   -1.0099 H         1 <0>         0.0830
     47 H17        -3.2168   -0.5553    0.5290 H         1 <0>         0.0801
     48 H18        -2.3495    0.9990    0.5340 H         1 <0>         0.0811
@<TRIPOS>BOND
     1    1    2 1
     2    1   32 1
     3    1   33 1
     4    1   34 1
     5    2    8 1
     6    2    3 2
     7    3    4 1
     8    3   31 1
     9    4    5 2
    10    4    6 1
    11    6    7 2
    12    6   10 1
    13    7    8 1
    14    7   35 1
    15    8    9 2
    16   10   17 1
    17   10   11 2
    18   11   12 1
    19   11   36 1
    20   12   13 am
    21   12   19 1
    22   13   14 2
    23   13   15 am
    24   15   16 1
    25   15   17 am
    26   17   18 2
    27   19   23 1
    28   19   20 1
    29   19   37 1
    30   20   21 1
    31   20   38 1
    32   20   39 1
    33   21   22 1
    34   21   30 1
    35   21   40 1
    36   22   23 1
    37   22   24 1
    38   22   41 1
    39   24   25 1
    40   24   42 1
    41   24   43 1
    42   25   26 1
    43   26   27 2
    44   26   28 1
    45   26   29 1
    46   29   44 1
    47   30   45 1
    48   31   46 1
    49   31   47 1
    50   31   48 1
@<TRIPOS>MOLECULE
CHEMBL415447__11
   46    48     0     0     0
SMALL
USER_CHARGES

@<TRIPOS>ATOM
      1 C1         -0.0184    1.5028    0.0103 C.3       1 <0>        -0.1115
      2 C2          0.0021   -0.0041    0.0020 C.2       1 <0>        -0.1330
      3 C3         -1.1514   -0.6862    0.0038 C.2       1 <0>        -0.1205
      4 C4         -1.1376   -2.1610   -0.0037 C.2       1 <0>         0.4079
      5 O1         -2.1816   -2.7802   -0.0021 O.2       1 <0>        -0.3945
      6 C5          0.1605   -2.8865   -0.0139 C.2       1 <0>         0.0202
      7 C6          1.3250   -2.1826   -0.0161 C.2       1 <0>        -0.1964
      8 C7          1.2939   -0.7214   -0.0142 C.2       1 <0>         0.4165
      9 O2          2.3358   -0.0932   -0.0207 O.2       1 <0>        -0.4414
     10 C8          0.1855   -4.3570   -0.0211 C.2       1 <0>        -0.3164
     11 C9          0.7909   -5.0668    1.0026 C.2       1 <0>         0.2022
     12 N1          0.7878   -6.4171    0.9519 N.pl3     1 <0>        -0.5148
     13 C10         0.2066   -7.0830   -0.0771 C.2       1 <0>         0.6199
     14 O3          0.2340   -8.4309   -0.0757 O.3       1 <0>        -0.6829
     15 N2         -0.3822   -6.4639   -1.0741 N.2       1 <0>        -0.6551
     16 C11        -0.4387   -5.1238   -1.1154 C.2       1 <0>         0.5477
     17 O4         -0.9908   -4.5518   -2.0410 O.2       1 <0>        -0.5787
     18 C12         1.4255   -7.1772    2.0298 C.3       1 <0>         0.2946
     19 C13         0.3753   -8.0166    2.8010 C.3       1 <0>        -0.1797
     20 C14         1.0535   -8.1961    4.1810 C.3       1 <0>         0.0772
     21 C15         2.0858   -7.0538    4.2460 C.3       1 <0>         0.0872
     22 O5          1.9511   -6.2869    3.0377 O.3       1 <0>        -0.3570
     23 C16         1.8036   -6.1660    5.4597 C.3       1 <0>         0.1487
     24 O6          2.8316   -5.1805    5.5784 O.3       1 <0>        -0.7582
     25 P1          2.8549   -4.0741    6.7477 P.3       1 <0>         2.1361
     26 O7          1.5034   -3.2816    6.7437 O.2       1 <0>        -1.1906
     27 O8          3.0411   -4.7819    8.1329 O.3       1 <0>        -1.1940
     28 O9          4.0427   -3.0820    6.5043 O.3       1 <0>        -1.1723
     29 O10         0.0936   -8.0631    5.2312 O.3       1 <0>        -0.5415
     30 C17        -2.4639    0.0543    0.0142 C.3       1 <0>        -0.1112
     31 H1          1.0042    1.8801    0.0026 H         1 <0>         0.0778
     32 H2         -0.5455    1.8639   -0.8728 H         1 <0>         0.0726
     33 H3         -0.5286    1.8543    0.9071 H         1 <0>         0.0785
     34 H4          2.2712   -2.7031   -0.0232 H         1 <0>         0.1507
     35 H5          1.2580   -4.5495    1.8276 H         1 <0>         0.1699
     36 H6          2.2145   -7.8159    1.6327 H         1 <0>         0.0969
     37 H7         -0.5638   -7.4717    2.8970 H         1 <0>         0.0864
     38 H8          0.2165   -8.9804    2.3174 H         1 <0>         0.1004
     39 H9          1.5515   -9.1640    4.2384 H         1 <0>         0.0735
     40 H10         3.0922   -7.4670    4.3125 H         1 <0>         0.0860
     41 H11         0.8401   -5.6724    5.3327 H         1 <0>         0.0467
     42 H12         1.7819   -6.7788    6.3609 H         1 <0>         0.0522
     43 H13        -0.6133   -8.7223    5.2037 H         1 <0>         0.3690
     44 H14        -2.7853    0.2384   -1.0110 H         1 <0>         0.0776
     45 H15        -3.2152   -0.5451    0.5284 H         1 <0>         0.0782
     46 H16        -2.3405    1.0051    0.5326 H         1 <0>         0.0752
@<TRIPOS>BOND
     1    1    2 1
     2    1   31 1
     3    1   32 1
     4    1   33 1
     5    2    8 1
     6    2    3 2
     7    3    4 1
     8    3   30 1
     9    4    5 2
    10    4    6 1
    11    6    7 2
    12    6   10 1
    13    7    8 1
    14    7   34 1
    15    8    9 2
    16   10   16 1
    17   10   11 2
    18   11   12 1
    19   11   35 1
    20   12   13 1
    21   12   18 1
    22   13   14 1
    23   13   15 2
    24   15   16 1
    25   16   17 2
    26   18   22 1
    27   18   19 1
    28   18   36 1
    29   19   20 1
    30   19   37 1
    31   19   38 1
    32   20   21 1
    33   20   29 1
    34   20   39 1
    35   21   22 1
    36   21   23 1
    37   21   40 1
    38   23   24 1
    39   23   41 1
    40   23   42 1
    41   24   25 1
    42   25   26 2
    43   25   27 1
    44   25   28 1
    45   29   43 1
    46   30   44 1
    47   30   45 1
    48   30   46 1
@<TRIPOS>MOLECULE
CHEMBL415447__12
   47    49     0     0     0
SMALL
USER_CHARGES

@<TRIPOS>ATOM
      1 C1         -0.0184    1.5028    0.0103 C.3       1 <0>        -0.1175
      2 C2          0.0021   -0.0041    0.0020 C.2       1 <0>        -0.1286
      3 C3         -1.1526   -0.6864    0.0038 C.2       1 <0>        -0.1230
      4 C4         -1.1244   -2.1624   -0.0049 C.2       1 <0>         0.4089
      5 O1         -2.1593   -2.7967   -0.0038 O.2       1 <0>        -0.3944
      6 C5          0.1886   -2.8631   -0.0154 C.2       1 <0>        -0.0001
      7 C6          1.3386   -2.1349   -0.0169 C.2       1 <0>        -0.1647
      8 C7          1.2933   -0.7205   -0.0142 C.2       1 <0>         0.4091
      9 O2          2.3319   -0.0864   -0.0207 O.2       1 <0>        -0.4213
     10 C8          0.2431   -4.3314   -0.0236 C.2       1 <0>        -0.2681
     11 C9          0.8635   -5.0285    1.0015 C.2       1 <0>         0.2233
     12 N1          0.8928   -6.3857    0.9583 N.am      1 <0>        -0.5129
     13 C10         0.3354   -7.0679   -0.0542 C.2       1 <0>         0.6844
     14 O3          0.3900   -8.2822   -0.0445 O.2       1 <0>        -0.4750
     15 N2         -0.2815   -6.4540   -1.0781 N.am      1 <0>        -0.6547
     16 H1         -0.6729   -6.9827   -1.7910 H         1 <0>         0.4343
     17 C11        -0.3657   -5.1075   -1.1191 C.2       1 <0>         0.5713
     18 O4         -0.9273   -4.5470   -2.0413 O.2       1 <0>        -0.5080
     19 C12         1.5486   -7.1220    2.0418 C.3       1 <0>         0.2857
     20 C13         0.5304   -8.0270    2.7702 C.3       1 <0>        -0.1939
     21 C14         1.3349   -9.3025    3.1065 C.3       1 <0>         0.0841
     22 C15         2.7441   -9.0172    2.5415 C.3       1 <0>         0.0867
     23 O5          2.5343   -8.0320    1.5066 O.3       1 <0>        -0.3315
     24 C16         3.3483  -10.2918    1.9488 C.3       1 <0>         0.1480
     25 O6          4.6928  -10.0353    1.5381 O.3       1 <0>        -0.7583
     26 P1          5.6342  -11.1566    0.8685 P.3       1 <0>         2.1310
     27 O7          5.7074  -12.4070    1.8096 O.2       1 <0>        -1.1905
     28 O8          5.0376  -11.5800   -0.5169 O.3       1 <0>        -1.1868
     29 O9          7.0737  -10.5741    0.6611 O.3       1 <0>        -1.1695
     30 O10         0.7590  -10.4417    2.4641 O.3       1 <0>        -0.5295
     31 C17        -2.4685    0.0479    0.0150 C.3       1 <0>        -0.1148
     32 H2          1.0042    1.8801    0.0026 H         1 <0>         0.0807
     33 H3         -0.5455    1.8639   -0.8728 H         1 <0>         0.0796
     34 H4         -0.5286    1.8543    0.9071 H         1 <0>         0.0806
     35 H5          2.2930   -2.6404   -0.0245 H         1 <0>         0.1596
     36 H6          1.3188   -4.4984    1.8249 H         1 <0>         0.1853
     37 H7          2.0132   -6.4293    2.7435 H         1 <0>         0.1164
     38 H8          0.1768   -7.5467    3.6826 H         1 <0>         0.0884
     39 H9         -0.3067   -8.2654    2.1139 H         1 <0>         0.0980
     40 H10         1.3792   -9.4528    4.1852 H         1 <0>         0.0776
     41 H11         3.3916   -8.6164    3.3214 H         1 <0>         0.0920
     42 H12         3.3425  -11.0805    2.7012 H         1 <0>         0.0539
     43 H13         2.7591  -10.6068    1.0876 H         1 <0>         0.0552
     44 H14        -0.1490  -10.6303    2.7378 H         1 <0>         0.3677
     45 H15        -2.7911    0.2312   -1.0099 H         1 <0>         0.0835
     46 H16        -3.2168   -0.5553    0.5290 H         1 <0>         0.0790
     47 H17        -2.3495    0.9990    0.5340 H         1 <0>         0.0789
@<TRIPOS>BOND
     1    1    2 1
     2    1   32 1
     3    1   33 1
     4    1   34 1
     5    2    8 1
     6    2    3 2
     7    3    4 1
     8    3   31 1
     9    4    5 2
    10    4    6 1
    11    6    7 2
    12    6   10 1
    13    7    8 1
    14    7   35 1
    15    8    9 2
    16   10   17 1
    17   10   11 2
    18   11   12 1
    19   11   36 1
    20   12   13 am
    21   12   19 1
    22   13   14 2
    23   13   15 am
    24   15   16 1
    25   15   17 am
    26   17   18 2
    27   19   23 1
    28   19   20 1
    29   19   37 1
    30   20   21 1
    31   20   38 1
    32   20   39 1
    33   21   22 1
    34   21   30 1
    35   21   40 1
    36   22   23 1
    37   22   24 1
    38   22   41 1
    39   24   25 1
    40   24   42 1
    41   24   43 1
    42   25   26 1
    43   26   27 2
    44   26   28 1
    45   26   29 1
    46   30   44 1
    47   31   45 1
    48   31   46 1
    49   31   47 1
@<TRIPOS>MOLECULE
CHEMBL415447__13
   48    50     0     0     0
SMALL
USER_CHARGES

@<TRIPOS>ATOM
      1 C1         -0.0184    1.5028    0.0103 C.3       1 <0>        -0.1188
      2 C2          0.0021   -0.0041    0.0020 C.2       1 <0>        -0.1284
      3 C3         -1.1526   -0.6864    0.0038 C.2       1 <0>        -0.1220
      4 C4         -1.1244   -2.1624   -0.0049 C.2       1 <0>         0.4090
      5 O1         -2.1593   -2.7967   -0.0038 O.2       1 <0>        -0.3936
      6 C5          0.1886   -2.8631   -0.0154 C.2       1 <0>        -0.0071
      7 C6          1.3386   -2.1349   -0.0169 C.2       1 <0>        -0.1586
      8 C7          1.2933   -0.7205   -0.0142 C.2       1 <0>         0.4080
      9 O2          2.3319   -0.0864   -0.0207 O.2       1 <0>        -0.4189
     10 C8          0.2431   -4.3314   -0.0236 C.2       1 <0>        -0.2532
     11 C9          0.8635   -5.0285    1.0015 C.2       1 <0>         0.2130
     12 N1          0.8928   -6.3857    0.9583 N.am      1 <0>        -0.5165
     13 C10         0.3354   -7.0679   -0.0542 C.2       1 <0>         0.6885
     14 O3          0.3900   -8.2822   -0.0445 O.2       1 <0>        -0.4852
     15 N2         -0.2815   -6.4540   -1.0781 N.am      1 <0>        -0.6547
     16 H1         -0.6729   -6.9827   -1.7910 H         1 <0>         0.4355
     17 C11        -0.3657   -5.1075   -1.1191 C.2       1 <0>         0.5679
     18 O4         -0.9273   -4.5470   -2.0413 O.2       1 <0>        -0.4986
     19 C12         1.5486   -7.1220    2.0418 C.3       1 <0>         0.2922
     20 C13         0.5304   -8.0270    2.7702 C.3       1 <0>        -0.1962
     21 C14         1.3349   -9.3025    3.1065 C.3       1 <0>         0.0852
     22 C15         2.7441   -9.0172    2.5415 C.3       1 <0>         0.0863
     23 O5          2.5343   -8.0320    1.5066 O.3       1 <0>        -0.3389
     24 C16         3.3483  -10.2918    1.9488 C.3       1 <0>         0.1529
     25 O6          4.6928  -10.0353    1.5381 O.3       1 <0>        -0.7603
     26 P1          5.6342  -11.1566    0.8685 P.3       1 <0>         2.2119
     27 O7          5.7064  -12.3896    1.7966 O.2       1 <0>        -1.1094
     28 O8          5.0458  -11.5742   -0.4977 O.3       1 <0>        -1.1051
     29 O9          7.1135  -10.5580    0.6553 O.3       1 <0>        -0.8979
     30 O10         0.7590  -10.4417    2.4641 O.3       1 <0>        -0.5366
     31 C17        -2.4685    0.0479    0.0150 C.3       1 <0>        -0.1162
     32 H2          1.0042    1.8801    0.0026 H         1 <0>         0.0810
     33 H3         -0.5455    1.8639   -0.8728 H         1 <0>         0.0810
     34 H4         -0.5286    1.8543    0.9071 H         1 <0>         0.0820
     35 H5          2.2930   -2.6404   -0.0245 H         1 <0>         0.1581
     36 H6          1.3188   -4.4984    1.8249 H         1 <0>         0.1862
     37 H7          2.0132   -6.4293    2.7435 H         1 <0>         0.1192
     38 H8          0.1768   -7.5467    3.6826 H         1 <0>         0.0935
     39 H9         -0.3067   -8.2654    2.1139 H         1 <0>         0.1019
     40 H10         1.3792   -9.4528    4.1852 H         1 <0>         0.0826
     41 H11         3.3916   -8.6164    3.3214 H         1 <0>         0.0965
     42 H12         3.3425  -11.0805    2.7012 H         1 <0>         0.0728
     43 H13         2.7591  -10.6068    1.0876 H         1 <0>         0.0747
     44 H14         7.7358  -11.1805    0.2549 H         1 <0>         0.4142
     45 H15        -0.1490  -10.6303    2.7378 H         1 <0>         0.3771
     46 H16        -2.7911    0.2312   -1.0099 H         1 <0>         0.0848
     47 H17        -3.2168   -0.5553    0.5290 H         1 <0>         0.0796
     48 H18        -2.3495    0.9990    0.5340 H         1 <0>         0.0804
@<TRIPOS>BOND
     1    1    2 1
     2    1   32 1
     3    1   33 1
     4    1   34 1
     5    2    8 1
     6    2    3 2
     7    3    4 1
     8    3   31 1
     9    4    5 2
    10    4    6 1
    11    6    7 2
    12    6   10 1
    13    7    8 1
    14    7   35 1
    15    8    9 2
    16   10   17 1
    17   10   11 2
    18   11   12 1
    19   11   36 1
    20   12   13 am
    21   12   19 1
    22   13   14 2
    23   13   15 am
    24   15   16 1
    25   15   17 am
    26   17   18 2
    27   19   23 1
    28   19   20 1
    29   19   37 1
    30   20   21 1
    31   20   38 1
    32   20   39 1
    33   21   22 1
    34   21   30 1
    35   21   40 1
    36   22   23 1
    37   22   24 1
    38   22   41 1
    39   24   25 1
    40   24   42 1
    41   24   43 1
    42   25   26 1
    43   26   27 2
    44   26   28 1
    45   26   29 1
    46   29   44 1
    47   30   45 1
    48   31   46 1
    49   31   47 1
    50   31   48 1
@<TRIPOS>MOLECULE
CHEMBL415447__14
   46    48     0     0     0
SMALL
USER_CHARGES

@<TRIPOS>ATOM
      1 C1         -0.0184    1.5028    0.0103 C.3       1 <0>        -0.1115
      2 C2          0.0021   -0.0041    0.0020 C.2       1 <0>        -0.1388
      3 C3         -1.1514   -0.6862    0.0038 C.2       1 <0>        -0.1172
      4 C4         -1.1376   -2.1610   -0.0037 C.2       1 <0>         0.4014
      5 O1         -2.1816   -2.7802   -0.0021 O.2       1 <0>        -0.3861
      6 C5          0.1605   -2.8865   -0.0139 C.2       1 <0>         0.0333
      7 C6          1.3250   -2.1826   -0.0161 C.2       1 <0>        -0.2135
      8 C7          1.2939   -0.7214   -0.0142 C.2       1 <0>         0.4170
      9 O2          2.3358   -0.0932   -0.0207 O.2       1 <0>        -0.4479
     10 C8          0.1855   -4.3570   -0.0211 C.2       1 <0>        -0.3173
     11 C9          0.7909   -5.0668    1.0026 C.2       1 <0>         0.1884
     12 N1          0.7878   -6.4171    0.9519 N.pl3     1 <0>        -0.5093
     13 C10         0.2066   -7.0830   -0.0771 C.2       1 <0>         0.6052
     14 O3          0.2340   -8.4309   -0.0757 O.3       1 <0>        -0.6140
     15 N2         -0.3822   -6.4639   -1.0741 N.2       1 <0>        -0.6522
     16 C11        -0.4387   -5.1238   -1.1154 C.2       1 <0>         0.5444
     17 O4         -0.9908   -4.5518   -2.0410 O.2       1 <0>        -0.5877
     18 C12         1.4255   -7.1772    2.0298 C.3       1 <0>         0.2859
     19 C13         0.3854   -8.0619    2.7522 C.3       1 <0>        -0.1868
     20 C14         1.1583   -9.3592    3.0790 C.3       1 <0>         0.0879
     21 C15         2.5740   -9.1049    2.5154 C.3       1 <0>         0.0870
     22 O5          2.3882   -8.1073    1.4877 O.3       1 <0>        -0.3222
     23 C16         3.1464  -10.3897    1.9133 C.3       1 <0>         0.1515
     24 O6          4.4966  -10.1635    1.5037 O.3       1 <0>        -0.7606
     25 P1          5.4098  -11.3029    0.8256 P.3       1 <0>         2.1395
     26 O7          5.4524  -12.5614    1.7578 O.2       1 <0>        -1.1969
     27 O8          4.8025  -11.7015   -0.5625 O.3       1 <0>        -1.1889
     28 O9          6.8632  -10.7546    0.6217 O.3       1 <0>        -1.1763
     29 O10         0.5543  -10.4792    2.4287 O.3       1 <0>        -0.5259
     30 C17        -2.4639    0.0543    0.0142 C.3       1 <0>        -0.1135
     31 H1          1.0042    1.8801    0.0026 H         1 <0>         0.0771
     32 H2         -0.5455    1.8639   -0.8728 H         1 <0>         0.0746
     33 H3         -0.5286    1.8543    0.9071 H         1 <0>         0.0751
     34 H4          2.2712   -2.7031   -0.0232 H         1 <0>         0.1510
     35 H5          1.2580   -4.5495    1.8276 H         1 <0>         0.1485
     36 H6          1.9072   -6.5012    2.7363 H         1 <0>         0.0843
     37 H7          0.0442   -7.5796    3.6682 H         1 <0>         0.0693
     38 H8         -0.4574   -8.2748    2.0946 H         1 <0>         0.1065
     39 H9          1.1992   -9.5184    4.1565 H         1 <0>         0.0630
     40 H10         3.2314   -8.7258    3.2978 H         1 <0>         0.0780
     41 H11         3.1213  -11.1834    2.6599 H         1 <0>         0.0448
     42 H12         2.5493  -10.6838    1.0501 H         1 <0>         0.0586
     43 H13        -0.3581  -10.6473    2.7014 H         1 <0>         0.3617
     44 H14        -2.7853    0.2384   -1.0110 H         1 <0>         0.0811
     45 H15        -3.2152   -0.5451    0.5284 H         1 <0>         0.0778
     46 H16        -2.3405    1.0051    0.5326 H         1 <0>         0.0740
@<TRIPOS>BOND
     1    1    2 1
     2    1   31 1
     3    1   32 1
     4    1   33 1
     5    2    8 1
     6    2    3 2
     7    3    4 1
     8    3   30 1
     9    4    5 2
    10    4    6 1
    11    6    7 2
    12    6   10 1
    13    7    8 1
    14    7   34 1
    15    8    9 2
    16   10   16 1
    17   10   11 2
    18   11   12 1
    19   11   35 1
    20   12   13 1
    21   12   18 1
    22   13   14 1
    23   13   15 2
    24   15   16 1
    25   16   17 2
    26   18   22 1
    27   18   19 1
    28   18   36 1
    29   19   20 1
    30   19   37 1
    31   19   38 1
    32   20   21 1
    33   20   29 1
    34   20   39 1
    35   21   22 1
    36   21   23 1
    37   21   40 1
    38   23   24 1
    39   23   41 1
    40   23   42 1
    41   24   25 1
    42   25   26 2
    43   25   27 1
    44   25   28 1
    45   29   43 1
    46   30   44 1
    47   30   45 1
    48   30   46 1
@<TRIPOS>MOLECULE
CHEMBL415447__15
   47    49     0     0     0
SMALL
USER_CHARGES

@<TRIPOS>ATOM
      1 C1         -0.0184    1.5028    0.0103 C.3       1 <0>        -0.1179
      2 C2          0.0021   -0.0041    0.0020 C.2       1 <0>        -0.1269
      3 C3         -1.1526   -0.6864    0.0038 C.2       1 <0>        -0.1247
      4 C4         -1.1244   -2.1624   -0.0049 C.2       1 <0>         0.4105
      5 O1         -2.1593   -2.7967   -0.0038 O.2       1 <0>        -0.3968
      6 C5          0.1886   -2.8631   -0.0154 C.2       1 <0>        -0.0047
      7 C6          1.3386   -2.1349   -0.0169 C.2       1 <0>        -0.1606
      8 C7          1.2933   -0.7205   -0.0142 C.2       1 <0>         0.4077
      9 O2          2.3319   -0.0864   -0.0207 O.2       1 <0>        -0.4181
     10 C8          0.2431   -4.3314   -0.0236 C.2       1 <0>        -0.2665
     11 C9          0.8635   -5.0285    1.0015 C.2       1 <0>         0.2246
     12 N1          0.8928   -6.3857    0.9583 N.am      1 <0>        -0.5142
     13 C10         0.3354   -7.0679   -0.0542 C.2       1 <0>         0.6925
     14 O3          0.3900   -8.2822   -0.0445 O.2       1 <0>        -0.4976
     15 N2         -0.2815   -6.4540   -1.0781 N.am      1 <0>        -0.6548
     16 H1         -0.6729   -6.9827   -1.7910 H         1 <0>         0.4328
     17 C11        -0.3657   -5.1075   -1.1191 C.2       1 <0>         0.5714
     18 O4         -0.9273   -4.5470   -2.0413 O.2       1 <0>        -0.5068
     19 C12         1.5486   -7.1220    2.0418 C.3       1 <0>         0.2895
     20 C13         0.5243   -8.0229    2.7767 C.3       1 <0>        -0.1983
     21 C14         1.4599   -9.1142    3.3645 C.3       1 <0>         0.0834
     22 C15         2.5460   -9.2367    2.2742 C.3       1 <0>         0.0938
     23 O5          2.5286   -8.0266    1.5080 O.3       1 <0>        -0.3356
     24 C16         3.9180   -9.4185    2.9263 C.3       1 <0>         0.1260
     25 O6          4.9001   -9.6473    1.9138 O.3       1 <0>        -0.7485
     26 P1          6.4590   -9.8814    2.2412 P.3       1 <0>         2.1274
     27 O7          6.9987   -8.6843    3.0956 O.2       1 <0>        -1.1881
     28 O8          6.6292  -11.2153    3.0451 O.3       1 <0>        -1.1874
     29 O9          7.2661   -9.9725    0.9015 O.3       1 <0>        -1.1665
     30 O10         0.7608  -10.3498    3.5270 O.3       1 <0>        -0.5416
     31 C17        -2.4685    0.0479    0.0150 C.3       1 <0>        -0.1143
     32 H2          1.0042    1.8801    0.0026 H         1 <0>         0.0811
     33 H3         -0.5455    1.8639   -0.8728 H         1 <0>         0.0795
     34 H4         -0.5286    1.8543    0.9071 H         1 <0>         0.0809
     35 H5          2.2930   -2.6404   -0.0245 H         1 <0>         0.1609
     36 H6          1.3188   -4.4984    1.8249 H         1 <0>         0.1878
     37 H7          2.0152   -6.4285    2.7414 H         1 <0>         0.1257
     38 H8          0.0152   -7.4736    3.5687 H         1 <0>         0.0915
     39 H9         -0.1919   -8.4545    2.0775 H         1 <0>         0.1057
     40 H10         1.8938   -8.7856    4.3089 H         1 <0>         0.0862
     41 H11         2.3269  -10.0867    1.6279 H         1 <0>         0.1032
     42 H12         4.1761   -8.5197    3.4863 H         1 <0>         0.0402
     43 H13         3.8883  -10.2723    3.6032 H         1 <0>         0.0519
     44 H14         0.0121  -10.3008    4.1371 H         1 <0>         0.3750
     45 H15        -2.7911    0.2312   -1.0099 H         1 <0>         0.0829
     46 H16        -3.2168   -0.5553    0.5290 H         1 <0>         0.0787
     47 H17        -2.3495    0.9990    0.5340 H         1 <0>         0.0789
@<TRIPOS>BOND
     1    1    2 1
     2    1   32 1
     3    1   33 1
     4    1   34 1
     5    2    8 1
     6    2    3 2
     7    3    4 1
     8    3   31 1
     9    4    5 2
    10    4    6 1
    11    6    7 2
    12    6   10 1
    13    7    8 1
    14    7   35 1
    15    8    9 2
    16   10   17 1
    17   10   11 2
    18   11   12 1
    19   11   36 1
    20   12   13 am
    21   12   19 1
    22   13   14 2
    23   13   15 am
    24   15   16 1
    25   15   17 am
    26   17   18 2
    27   19   23 1
    28   19   20 1
    29   19   37 1
    30   20   21 1
    31   20   38 1
    32   20   39 1
    33   21   22 1
    34   21   30 1
    35   21   40 1
    36   22   23 1
    37   22   24 1
    38   22   41 1
    39   24   25 1
    40   24   42 1
    41   24   43 1
    42   25   26 1
    43   26   27 2
    44   26   28 1
    45   26   29 1
    46   30   44 1
    47   31   45 1
    48   31   46 1
    49   31   47 1
@<TRIPOS>MOLECULE
CHEMBL415447__16
   46    48     0     0     0
SMALL
USER_CHARGES

@<TRIPOS>ATOM
      1 C1         -0.0184    1.5028    0.0103 C.3       1 <0>        -0.1119
      2 C2          0.0021   -0.0041    0.0020 C.2       1 <0>        -0.1371
      3 C3         -1.1514   -0.6862    0.0038 C.2       1 <0>        -0.1187
      4 C4         -1.1376   -2.1610   -0.0037 C.2       1 <0>         0.4029
      5 O1         -2.1816   -2.7802   -0.0021 O.2       1 <0>        -0.3884
      6 C5          0.1605   -2.8865   -0.0139 C.2       1 <0>         0.0290
      7 C6          1.3250   -2.1826   -0.0161 C.2       1 <0>        -0.2088
      8 C7          1.2939   -0.7214   -0.0142 C.2       1 <0>         0.4158
      9 O2          2.3358   -0.0932   -0.0207 O.2       1 <0>        -0.4446
     10 C8          0.1855   -4.3570   -0.0211 C.2       1 <0>        -0.3167
     11 C9          0.7909   -5.0668    1.0026 C.2       1 <0>         0.1906
     12 N1          0.7878   -6.4171    0.9519 N.pl3     1 <0>        -0.5115
     13 C10         0.2066   -7.0830   -0.0771 C.2       1 <0>         0.6135
     14 O3          0.2340   -8.4309   -0.0757 O.3       1 <0>        -0.6390
     15 N2         -0.3822   -6.4639   -1.0741 N.2       1 <0>        -0.6546
     16 C11        -0.4387   -5.1238   -1.1154 C.2       1 <0>         0.5458
     17 O4         -0.9908   -4.5518   -2.0410 O.2       1 <0>        -0.5856
     18 C12         1.4255   -7.1772    2.0298 C.3       1 <0>         0.2904
     19 C13         0.3795   -8.0577    2.7587 C.3       1 <0>        -0.1913
     20 C14         1.2881   -9.1760    3.3383 C.3       1 <0>         0.0828
     21 C15         2.3704   -9.3174    2.2465 C.3       1 <0>         0.0982
     22 O5          2.3827   -8.1018    1.4891 O.3       1 <0>        -0.3302
     23 C16         3.7378   -9.5378    2.8967 C.3       1 <0>         0.1299
     24 O6          4.7136   -9.7835    1.8821 O.3       1 <0>        -0.7482
     25 P1          6.2663  -10.0584    2.2071 P.3       1 <0>         2.1362
     26 O7          6.8357   -8.8810    3.0698 O.2       1 <0>        -1.1932
     27 O8          6.4037  -11.4017    3.0014 O.3       1 <0>        -1.1932
     28 O9          7.0705  -10.1598    0.8664 O.3       1 <0>        -1.1714
     29 O10         0.5586  -10.3951    3.4922 O.3       1 <0>        -0.5440
     30 C17        -2.4639    0.0543    0.0142 C.3       1 <0>        -0.1131
     31 H1          1.0042    1.8801    0.0026 H         1 <0>         0.0775
     32 H2         -0.5455    1.8639   -0.8728 H         1 <0>         0.0745
     33 H3         -0.5286    1.8543    0.9071 H         1 <0>         0.0754
     34 H4          2.2712   -2.7031   -0.0232 H         1 <0>         0.1525
     35 H5          1.2580   -4.5495    1.8276 H         1 <0>         0.1517
     36 H6          1.9093   -6.5004    2.7342 H         1 <0>         0.0936
     37 H7         -0.1156   -7.5018    3.5549 H         1 <0>         0.0742
     38 H8         -0.3474   -8.4665    2.0568 H         1 <0>         0.1156
     39 H9          1.7301   -8.8650    4.2848 H         1 <0>         0.0747
     40 H10         2.1302  -10.1571    1.5943 H         1 <0>         0.0975
     41 H11         4.0181   -8.6496    3.4630 H         1 <0>         0.0351
     42 H12         3.6872  -10.3954    3.5675 H         1 <0>         0.0442
     43 H13        -0.1884  -10.3320    4.1030 H         1 <0>         0.3677
     44 H14        -2.7853    0.2384   -1.0110 H         1 <0>         0.0806
     45 H15        -3.2152   -0.5451    0.5284 H         1 <0>         0.0776
     46 H16        -2.3405    1.0051    0.5326 H         1 <0>         0.0740
@<TRIPOS>BOND
     1    1    2 1
     2    1   31 1
     3    1   32 1
     4    1   33 1
     5    2    8 1
     6    2    3 2
     7    3    4 1
     8    3   30 1
     9    4    5 2
    10    4    6 1
    11    6    7 2
    12    6   10 1
    13    7    8 1
    14    7   34 1
    15    8    9 2
    16   10   16 1
    17   10   11 2
    18   11   12 1
    19   11   35 1
    20   12   13 1
    21   12   18 1
    22   13   14 1
    23   13   15 2
    24   15   16 1
    25   16   17 2
    26   18   22 1
    27   18   19 1
    28   18   36 1
    29   19   20 1
    30   19   37 1
    31   19   38 1
    32   20   21 1
    33   20   29 1
    34   20   39 1
    35   21   22 1
    36   21   23 1
    37   21   40 1
    38   23   24 1
    39   23   41 1
    40   23   42 1
    41   24   25 1
    42   25   26 2
    43   25   27 1
    44   25   28 1
    45   29   43 1
    46   30   44 1
    47   30   45 1
    48   30   46 1
@<TRIPOS>MOLECULE
CHEMBL415447__17
   48    50     0     0     0
SMALL
USER_CHARGES

@<TRIPOS>ATOM
      1 C1         -0.0184    1.5028    0.0103 C.3       1 <0>        -0.1191
      2 C2          0.0021   -0.0041    0.0020 C.2       1 <0>        -0.1271
      3 C3         -1.1526   -0.6864    0.0038 C.2       1 <0>        -0.1232
      4 C4         -1.1244   -2.1624   -0.0049 C.2       1 <0>         0.4100
      5 O1         -2.1593   -2.7967   -0.0038 O.2       1 <0>        -0.3953
      6 C5          0.1886   -2.8631   -0.0154 C.2       1 <0>        -0.0104
      7 C6          1.3386   -2.1349   -0.0169 C.2       1 <0>        -0.1555
      8 C7          1.2933   -0.7205   -0.0142 C.2       1 <0>         0.4070
      9 O2          2.3319   -0.0864   -0.0207 O.2       1 <0>        -0.4165
     10 C8          0.2431   -4.3314   -0.0236 C.2       1 <0>        -0.2519
     11 C9          0.8635   -5.0285    1.0015 C.2       1 <0>         0.2139
     12 N1          0.8928   -6.3857    0.9583 N.am      1 <0>        -0.5177
     13 C10         0.3354   -7.0679   -0.0542 C.2       1 <0>         0.6952
     14 O3          0.3900   -8.2822   -0.0445 O.2       1 <0>        -0.5044
     15 N2         -0.2815   -6.4540   -1.0781 N.am      1 <0>        -0.6547
     16 H1         -0.6729   -6.9827   -1.7910 H         1 <0>         0.4344
     17 C11        -0.3657   -5.1075   -1.1191 C.2       1 <0>         0.5679
     18 O4         -0.9273   -4.5470   -2.0413 O.2       1 <0>        -0.4975
     19 C12         1.5486   -7.1220    2.0418 C.3       1 <0>         0.2943
     20 C13         0.5243   -8.0229    2.7767 C.3       1 <0>        -0.2003
     21 C14         1.4599   -9.1142    3.3645 C.3       1 <0>         0.0848
     22 C15         2.5460   -9.2367    2.2742 C.3       1 <0>         0.0923
     23 O5          2.5286   -8.0266    1.5080 O.3       1 <0>        -0.3427
     24 C16         3.9180   -9.4185    2.9263 C.3       1 <0>         0.1310
     25 O6          4.9001   -9.6473    1.9138 O.3       1 <0>        -0.7513
     26 P1          6.4590   -9.8814    2.2412 P.3       1 <0>         2.2116
     27 O7          6.9913   -8.7008    3.0837 O.2       1 <0>        -1.1084
     28 O8          6.6268  -11.1968    3.0341 O.3       1 <0>        -1.1065
     29 O9          7.2884   -9.9751    0.8644 O.3       1 <0>        -0.8964
     30 O10         0.7608  -10.3498    3.5270 O.3       1 <0>        -0.5431
     31 C17        -2.4685    0.0479    0.0150 C.3       1 <0>        -0.1159
     32 H2          1.0042    1.8801    0.0026 H         1 <0>         0.0814
     33 H3         -0.5455    1.8639   -0.8728 H         1 <0>         0.0810
     34 H4         -0.5286    1.8543    0.9071 H         1 <0>         0.0823
     35 H5          2.2930   -2.6404   -0.0245 H         1 <0>         0.1591
     36 H6          1.3188   -4.4984    1.8249 H         1 <0>         0.1884
     37 H7          2.0152   -6.4285    2.7414 H         1 <0>         0.1276
     38 H8          0.0152   -7.4736    3.5687 H         1 <0>         0.0971
     39 H9         -0.1919   -8.4545    2.0775 H         1 <0>         0.1092
     40 H10         1.8938   -8.7856    4.3089 H         1 <0>         0.0880
     41 H11         2.3269  -10.0867    1.6279 H         1 <0>         0.1086
     42 H12         4.1761   -8.5197    3.4863 H         1 <0>         0.0597
     43 H13         3.8883  -10.2723    3.6032 H         1 <0>         0.0716
     44 H14         8.2373  -10.1161    0.9857 H         1 <0>         0.4145
     45 H15         0.0121  -10.3008    4.1371 H         1 <0>         0.3828
     46 H16        -2.7911    0.2312   -1.0099 H         1 <0>         0.0844
     47 H17        -3.2168   -0.5553    0.5290 H         1 <0>         0.0794
     48 H18        -2.3495    0.9990    0.5340 H         1 <0>         0.0804
@<TRIPOS>BOND
     1    1    2 1
     2    1   32 1
     3    1   33 1
     4    1   34 1
     5    2    8 1
     6    2    3 2
     7    3    4 1
     8    3   31 1
     9    4    5 2
    10    4    6 1
    11    6    7 2
    12    6   10 1
    13    7    8 1
    14    7   35 1
    15    8    9 2
    16   10   17 1
    17   10   11 2
    18   11   12 1
    19   11   36 1
    20   12   13 am
    21   12   19 1
    22   13   14 2
    23   13   15 am
    24   15   16 1
    25   15   17 am
    26   17   18 2
    27   19   23 1
    28   19   20 1
    29   19   37 1
    30   20   21 1
    31   20   38 1
    32   20   39 1
    33   21   22 1
    34   21   30 1
    35   21   40 1
    36   22   23 1
    37   22   24 1
    38   22   41 1
    39   24   25 1
    40   24   42 1
    41   24   43 1
    42   25   26 1
    43   26   27 2
    44   26   28 1
    45   26   29 1
    46   29   44 1
    47   30   45 1
    48   31   46 1
    49   31   47 1
    50   31   48 1
@<TRIPOS>MOLECULE
CHEMBL415447__18
   47    49     0     0     0
SMALL
USER_CHARGES

@<TRIPOS>ATOM
      1 C1         -0.0184    1.5028    0.0103 C.3       1 <0>        -0.1176
      2 C2          0.0021   -0.0041    0.0020 C.2       1 <0>        -0.1284
      3 C3         -1.1526   -0.6864    0.0038 C.2       1 <0>        -0.1231
      4 C4         -1.1244   -2.1624   -0.0049 C.2       1 <0>         0.4092
      5 O1         -2.1593   -2.7967   -0.0038 O.2       1 <0>        -0.3946
      6 C5          0.1886   -2.8631   -0.0154 C.2       1 <0>        -0.0015
      7 C6          1.3386   -2.1349   -0.0169 C.2       1 <0>        -0.1633
      8 C7          1.2933   -0.7205   -0.0142 C.2       1 <0>         0.4089
      9 O2          2.3319   -0.0864   -0.0207 O.2       1 <0>        -0.4207
     10 C8          0.2431   -4.3314   -0.0236 C.2       1 <0>        -0.2661
     11 C9          0.8635   -5.0285    1.0015 C.2       1 <0>         0.2232
     12 N1          0.8928   -6.3857    0.9583 N.am      1 <0>        -0.5135
     13 C10         0.3354   -7.0679   -0.0542 C.2       1 <0>         0.6898
     14 O3          0.3900   -8.2822   -0.0445 O.2       1 <0>        -0.4878
     15 N2         -0.2815   -6.4540   -1.0781 N.am      1 <0>        -0.6540
     16 H1         -0.6729   -6.9827   -1.7910 H         1 <0>         0.4347
     17 C11        -0.3657   -5.1075   -1.1191 C.2       1 <0>         0.5712
     18 O4         -0.9273   -4.5470   -2.0413 O.2       1 <0>        -0.5062
     19 C12         1.5486   -7.1220    2.0418 C.3       1 <0>         0.2870
     20 C13         0.5304   -8.0270    2.7702 C.3       1 <0>        -0.1898
     21 C14         1.3349   -9.3025    3.1065 C.3       1 <0>         0.0808
     22 C15         2.7441   -9.0172    2.5415 C.3       1 <0>         0.0917
     23 O5          2.5343   -8.0320    1.5066 O.3       1 <0>        -0.3314
     24 C16         3.3483  -10.2918    1.9488 C.3       1 <0>         0.1397
     25 O6          4.6928  -10.0353    1.5381 O.3       1 <0>        -0.7518
     26 P1          5.6342  -11.1566    0.8685 P.3       1 <0>         2.1274
     27 O7          5.7074  -12.4070    1.8096 O.2       1 <0>        -1.1884
     28 O8          5.0376  -11.5800   -0.5169 O.3       1 <0>        -1.1856
     29 O9          7.0737  -10.5741    0.6611 O.3       1 <0>        -1.1667
     30 O10         1.3929   -9.4995    4.5207 O.3       1 <0>        -0.5506
     31 C17        -2.4685    0.0479    0.0150 C.3       1 <0>        -0.1148
     32 H2          1.0042    1.8801    0.0026 H         1 <0>         0.0807
     33 H3         -0.5455    1.8639   -0.8728 H         1 <0>         0.0796
     34 H4         -0.5286    1.8543    0.9071 H         1 <0>         0.0807
     35 H5          2.2930   -2.6404   -0.0245 H         1 <0>         0.1598
     36 H6          1.3188   -4.4984    1.8249 H         1 <0>         0.1862
     37 H7          2.0132   -6.4293    2.7435 H         1 <0>         0.1191
     38 H8          0.1768   -7.5467    3.6826 H         1 <0>         0.0929
     39 H9         -0.3067   -8.2654    2.1139 H         1 <0>         0.0935
     40 H10         0.8957  -10.1714    2.6165 H         1 <0>         0.0863
     41 H11         3.3916   -8.6164    3.3214 H         1 <0>         0.0919
     42 H12         3.3425  -11.0805    2.7012 H         1 <0>         0.0585
     43 H13         2.7591  -10.6068    1.0876 H         1 <0>         0.0464
     44 H14         0.5286   -9.6231    4.9363 H         1 <0>         0.3749
     45 H15        -2.7911    0.2312   -1.0099 H         1 <0>         0.0835
     46 H16        -3.2168   -0.5553    0.5290 H         1 <0>         0.0791
     47 H17        -2.3495    0.9990    0.5340 H         1 <0>         0.0789
@<TRIPOS>BOND
     1    1    2 1
     2    1   32 1
     3    1   33 1
     4    1   34 1
     5    2    8 1
     6    2    3 2
     7    3    4 1
     8    3   31 1
     9    4    5 2
    10    4    6 1
    11    6    7 2
    12    6   10 1
    13    7    8 1
    14    7   35 1
    15    8    9 2
    16   10   17 1
    17   10   11 2
    18   11   12 1
    19   11   36 1
    20   12   13 am
    21   12   19 1
    22   13   14 2
    23   13   15 am
    24   15   16 1
    25   15   17 am
    26   17   18 2
    27   19   23 1
    28   19   20 1
    29   19   37 1
    30   20   21 1
    31   20   38 1
    32   20   39 1
    33   21   22 1
    34   21   30 1
    35   21   40 1
    36   22   23 1
    37   22   24 1
    38   22   41 1
    39   24   25 1
    40   24   42 1
    41   24   43 1
    42   25   26 1
    43   26   27 2
    44   26   28 1
    45   26   29 1
    46   30   44 1
    47   31   45 1
    48   31   46 1
    49   31   47 1
@<TRIPOS>MOLECULE
CHEMBL415447__19
   48    50     0     0     0
SMALL
USER_CHARGES

@<TRIPOS>ATOM
      1 C1         -0.0184    1.5028    0.0103 C.3       1 <0>        -0.1189
      2 C2          0.0021   -0.0041    0.0020 C.2       1 <0>        -0.1282
      3 C3         -1.1526   -0.6864    0.0038 C.2       1 <0>        -0.1221
      4 C4         -1.1244   -2.1624   -0.0049 C.2       1 <0>         0.4093
      5 O1         -2.1593   -2.7967   -0.0038 O.2       1 <0>        -0.3938
      6 C5          0.1886   -2.8631   -0.0154 C.2       1 <0>        -0.0084
      7 C6          1.3386   -2.1349   -0.0169 C.2       1 <0>        -0.1573
      8 C7          1.2933   -0.7205   -0.0142 C.2       1 <0>         0.4078
      9 O2          2.3319   -0.0864   -0.0207 O.2       1 <0>        -0.4183
     10 C8          0.2431   -4.3314   -0.0236 C.2       1 <0>        -0.2513
     11 C9          0.8635   -5.0285    1.0015 C.2       1 <0>         0.2129
     12 N1          0.8928   -6.3857    0.9583 N.am      1 <0>        -0.5169
     13 C10         0.3354   -7.0679   -0.0542 C.2       1 <0>         0.6938
     14 O3          0.3900   -8.2822   -0.0445 O.2       1 <0>        -0.4979
     15 N2         -0.2815   -6.4540   -1.0781 N.am      1 <0>        -0.6540
     16 H1         -0.6729   -6.9827   -1.7910 H         1 <0>         0.4359
     17 C11        -0.3657   -5.1075   -1.1191 C.2       1 <0>         0.5678
     18 O4         -0.9273   -4.5470   -2.0413 O.2       1 <0>        -0.4968
     19 C12         1.5486   -7.1220    2.0418 C.3       1 <0>         0.2935
     20 C13         0.5304   -8.0270    2.7702 C.3       1 <0>        -0.1922
     21 C14         1.3349   -9.3025    3.1065 C.3       1 <0>         0.0824
     22 C15         2.7441   -9.0172    2.5415 C.3       1 <0>         0.0896
     23 O5          2.5343   -8.0320    1.5066 O.3       1 <0>        -0.3387
     24 C16         3.3483  -10.2918    1.9488 C.3       1 <0>         0.1456
     25 O6          4.6928  -10.0353    1.5381 O.3       1 <0>        -0.7547
     26 P1          5.6342  -11.1566    0.8685 P.3       1 <0>         2.2110
     27 O7          5.7064  -12.3896    1.7966 O.2       1 <0>        -1.1079
     28 O8          5.0458  -11.5742   -0.4977 O.3       1 <0>        -1.1044
     29 O9          7.1135  -10.5580    0.6553 O.3       1 <0>        -0.8969
     30 O10         1.3929   -9.4995    4.5207 O.3       1 <0>        -0.5526
     31 C17        -2.4685    0.0479    0.0150 C.3       1 <0>        -0.1162
     32 H2          1.0042    1.8801    0.0026 H         1 <0>         0.0811
     33 H3         -0.5455    1.8639   -0.8728 H         1 <0>         0.0811
     34 H4         -0.5286    1.8543    0.9071 H         1 <0>         0.0822
     35 H5          2.2930   -2.6404   -0.0245 H         1 <0>         0.1584
     36 H6          1.3188   -4.4984    1.8249 H         1 <0>         0.1871
     37 H7          2.0132   -6.4293    2.7435 H         1 <0>         0.1218
     38 H8          0.1768   -7.5467    3.6826 H         1 <0>         0.0978
     39 H9         -0.3067   -8.2654    2.1139 H         1 <0>         0.0976
     40 H10         0.8957  -10.1714    2.6165 H         1 <0>         0.0882
     41 H11         3.3916   -8.6164    3.3214 H         1 <0>         0.0967
     42 H12         3.3425  -11.0805    2.7012 H         1 <0>         0.0770
     43 H13         2.7591  -10.6068    1.0876 H         1 <0>         0.0664
     44 H14         7.7358  -11.1805    0.2549 H         1 <0>         0.4147
     45 H15         0.5286   -9.6231    4.9363 H         1 <0>         0.3827
     46 H16        -2.7911    0.2312   -1.0099 H         1 <0>         0.0849
     47 H17        -3.2168   -0.5553    0.5290 H         1 <0>         0.0797
     48 H18        -2.3495    0.9990    0.5340 H         1 <0>         0.0805
@<TRIPOS>BOND
     1    1    2 1
     2    1   32 1
     3    1   33 1
     4    1   34 1
     5    2    8 1
     6    2    3 2
     7    3    4 1
     8    3   31 1
     9    4    5 2
    10    4    6 1
    11    6    7 2
    12    6   10 1
    13    7    8 1
    14    7   35 1
    15    8    9 2
    16   10   17 1
    17   10   11 2
    18   11   12 1
    19   11   36 1
    20   12   13 am
    21   12   19 1
    22   13   14 2
    23   13   15 am
    24   15   16 1
    25   15   17 am
    26   17   18 2
    27   19   23 1
    28   19   20 1
    29   19   37 1
    30   20   21 1
    31   20   38 1
    32   20   39 1
    33   21   22 1
    34   21   30 1
    35   21   40 1
    36   22   23 1
    37   22   24 1
    38   22   41 1
    39   24   25 1
    40   24   42 1
    41   24   43 1
    42   25   26 1
    43   26   27 2
    44   26   28 1
    45   26   29 1
    46   29   44 1
    47   30   45 1
    48   31   46 1
    49   31   47 1
    50   31   48 1
@<TRIPOS>MOLECULE
CHEMBL415447__20
   46    48     0     0     0
SMALL
USER_CHARGES

@<TRIPOS>ATOM
      1 C1         -0.0184    1.5028    0.0103 C.3       1 <0>        -0.1116
      2 C2          0.0021   -0.0041    0.0020 C.2       1 <0>        -0.1386
      3 C3         -1.1514   -0.6862    0.0038 C.2       1 <0>        -0.1172
      4 C4         -1.1376   -2.1610   -0.0037 C.2       1 <0>         0.4017
      5 O1         -2.1816   -2.7802   -0.0021 O.2       1 <0>        -0.3863
      6 C5          0.1605   -2.8865   -0.0139 C.2       1 <0>         0.0319
      7 C6          1.3250   -2.1826   -0.0161 C.2       1 <0>        -0.2118
      8 C7          1.2939   -0.7214   -0.0142 C.2       1 <0>         0.4169
      9 O2          2.3358   -0.0932   -0.0207 O.2       1 <0>        -0.4471
     10 C8          0.1855   -4.3570   -0.0211 C.2       1 <0>        -0.3158
     11 C9          0.7909   -5.0668    1.0026 C.2       1 <0>         0.1889
     12 N1          0.7878   -6.4171    0.9519 N.pl3     1 <0>        -0.5102
     13 C10         0.2066   -7.0830   -0.0771 C.2       1 <0>         0.6106
     14 O3          0.2340   -8.4309   -0.0757 O.3       1 <0>        -0.6293
     15 N2         -0.3822   -6.4639   -1.0741 N.2       1 <0>        -0.6511
     16 C11        -0.4387   -5.1238   -1.1154 C.2       1 <0>         0.5450
     17 O4         -0.9908   -4.5518   -2.0410 O.2       1 <0>        -0.5853
     18 C12         1.4255   -7.1772    2.0298 C.3       1 <0>         0.2871
     19 C13         0.3854   -8.0619    2.7522 C.3       1 <0>        -0.1811
     20 C14         1.1583   -9.3592    3.0790 C.3       1 <0>         0.0815
     21 C15         2.5740   -9.1049    2.5154 C.3       1 <0>         0.0935
     22 O5          2.3882   -8.1073    1.4877 O.3       1 <0>        -0.3225
     23 C16         3.1464  -10.3897    1.9133 C.3       1 <0>         0.1428
     24 O6          4.4966  -10.1635    1.5037 O.3       1 <0>        -0.7540
     25 P1          5.4098  -11.3029    0.8256 P.3       1 <0>         2.1360
     26 O7          5.4524  -12.5614    1.7578 O.2       1 <0>        -1.1948
     27 O8          4.8025  -11.7015   -0.5625 O.3       1 <0>        -1.1876
     28 O9          6.8632  -10.7546    0.6217 O.3       1 <0>        -1.1735
     29 O10         1.2119   -9.5678    4.4917 O.3       1 <0>        -0.5583
     30 C17        -2.4639    0.0543    0.0142 C.3       1 <0>        -0.1136
     31 H1          1.0042    1.8801    0.0026 H         1 <0>         0.0772
     32 H2         -0.5455    1.8639   -0.8728 H         1 <0>         0.0747
     33 H3         -0.5286    1.8543    0.9071 H         1 <0>         0.0752
     34 H4          2.2712   -2.7031   -0.0232 H         1 <0>         0.1514
     35 H5          1.2580   -4.5495    1.8276 H         1 <0>         0.1498
     36 H6          1.9072   -6.5012    2.7363 H         1 <0>         0.0876
     37 H7          0.0442   -7.5796    3.6682 H         1 <0>         0.0748
     38 H8         -0.4574   -8.2748    2.0946 H         1 <0>         0.1013
     39 H9          0.6976  -10.2135    2.5830 H         1 <0>         0.0829
     40 H10         3.2314   -8.7258    3.2978 H         1 <0>         0.0785
     41 H11         3.1213  -11.1834    2.6599 H         1 <0>         0.0496
     42 H12         2.5493  -10.6838    1.0501 H         1 <0>         0.0498
     43 H13         0.3449   -9.6730    4.9068 H         1 <0>         0.3683
     44 H14        -2.7853    0.2384   -1.0110 H         1 <0>         0.0811
     45 H15        -3.2152   -0.5451    0.5284 H         1 <0>         0.0779
     46 H16        -2.3405    1.0051    0.5326 H         1 <0>         0.0741
@<TRIPOS>BOND
     1    1    2 1
     2    1   31 1
     3    1   32 1
     4    1   33 1
     5    2    8 1
     6    2    3 2
     7    3    4 1
     8    3   30 1
     9    4    5 2
    10    4    6 1
    11    6    7 2
    12    6   10 1
    13    7    8 1
    14    7   34 1
    15    8    9 2
    16   10   16 1
    17   10   11 2
    18   11   12 1
    19   11   35 1
    20   12   13 1
    21   12   18 1
    22   13   14 1
    23   13   15 2
    24   15   16 1
    25   16   17 2
    26   18   22 1
    27   18   19 1
    28   18   36 1
    29   19   20 1
    30   19   37 1
    31   19   38 1
    32   20   21 1
    33   20   29 1
    34   20   39 1
    35   21   22 1
    36   21   23 1
    37   21   40 1
    38   23   24 1
    39   23   41 1
    40   23   42 1
    41   24   25 1
    42   25   26 2
    43   25   27 1
    44   25   28 1
    45   29   43 1
    46   30   44 1
    47   30   45 1
    48   30   46 1
@<TRIPOS>MOLECULE
CHEMBL415447__21
   47    49     0     0     0
SMALL
USER_CHARGES

@<TRIPOS>ATOM
      1 C1         -0.0184    1.5028    0.0103 C.3       1 <0>        -0.1179
      2 C2          0.0021   -0.0041    0.0020 C.2       1 <0>        -0.1266
      3 C3         -1.1526   -0.6864    0.0038 C.2       1 <0>        -0.1250
      4 C4         -1.1244   -2.1624   -0.0049 C.2       1 <0>         0.4108
      5 O1         -2.1593   -2.7967   -0.0038 O.2       1 <0>        -0.3972
      6 C5          0.1886   -2.8631   -0.0154 C.2       1 <0>        -0.0049
      7 C6          1.3386   -2.1349   -0.0169 C.2       1 <0>        -0.1605
      8 C7          1.2933   -0.7205   -0.0142 C.2       1 <0>         0.4076
      9 O2          2.3319   -0.0864   -0.0207 O.2       1 <0>        -0.4179
     10 C8          0.2431   -4.3314   -0.0236 C.2       1 <0>        -0.2674
     11 C9          0.8635   -5.0285    1.0015 C.2       1 <0>         0.2257
     12 N1          0.8928   -6.3857    0.9583 N.am      1 <0>        -0.5147
     13 C10         0.3354   -7.0679   -0.0542 C.2       1 <0>         0.6943
     14 O3          0.3900   -8.2822   -0.0445 O.2       1 <0>        -0.5029
     15 N2         -0.2815   -6.4540   -1.0781 N.am      1 <0>        -0.6550
     16 H1         -0.6729   -6.9827   -1.7910 H         1 <0>         0.4325
     17 C11        -0.3657   -5.1075   -1.1191 C.2       1 <0>         0.5714
     18 O4         -0.9273   -4.5470   -2.0413 O.2       1 <0>        -0.5069
     19 C12         1.5486   -7.1220    2.0418 C.3       1 <0>         0.2928
     20 C13         0.5243   -8.0229    2.7767 C.3       1 <0>        -0.1944
     21 C14         1.4599   -9.1142    3.3645 C.3       1 <0>         0.0811
     22 C15         2.5460   -9.2367    2.2742 C.3       1 <0>         0.0958
     23 O5          2.5286   -8.0266    1.5080 O.3       1 <0>        -0.3395
     24 C16         3.9180   -9.4185    2.9263 C.3       1 <0>         0.1340
     25 O6          4.9001   -9.6473    1.9138 O.3       1 <0>        -0.7551
     26 P1          6.4590   -9.8814    2.2412 P.3       1 <0>         2.1310
     27 O7          6.9987   -8.6843    3.0956 O.2       1 <0>        -1.1891
     28 O8          6.6292  -11.2153    3.0451 O.3       1 <0>        -1.1898
     29 O9          7.2661   -9.9725    0.9015 O.3       1 <0>        -1.1693
     30 O10         2.0287   -8.6834    4.6027 O.3       1 <0>        -0.5392
     31 C17        -2.4685    0.0479    0.0150 C.3       1 <0>        -0.1141
     32 H2          1.0042    1.8801    0.0026 H         1 <0>         0.0811
     33 H3         -0.5455    1.8639   -0.8728 H         1 <0>         0.0794
     34 H4         -0.5286    1.8543    0.9071 H         1 <0>         0.0810
     35 H5          2.2930   -2.6404   -0.0245 H         1 <0>         0.1609
     36 H6          1.3188   -4.4984    1.8249 H         1 <0>         0.1875
     37 H7          2.0152   -6.4285    2.7414 H         1 <0>         0.1257
     38 H8          0.0152   -7.4736    3.5687 H         1 <0>         0.0924
     39 H9         -0.1919   -8.4545    2.0775 H         1 <0>         0.1034
     40 H10         0.9266  -10.0567    3.4885 H         1 <0>         0.0871
     41 H11         2.3269  -10.0867    1.6279 H         1 <0>         0.1024
     42 H12         4.1761   -8.5197    3.4863 H         1 <0>         0.0489
     43 H13         3.8883  -10.2723    3.6032 H         1 <0>         0.0481
     44 H14         1.3767   -8.5072    5.2948 H         1 <0>         0.3719
     45 H15        -2.7911    0.2312   -1.0099 H         1 <0>         0.0828
     46 H16        -3.2168   -0.5553    0.5290 H         1 <0>         0.0787
     47 H17        -2.3495    0.9990    0.5340 H         1 <0>         0.0789
@<TRIPOS>BOND
     1    1    2 1
     2    1   32 1
     3    1   33 1
     4    1   34 1
     5    2    8 1
     6    2    3 2
     7    3    4 1
     8    3   31 1
     9    4    5 2
    10    4    6 1
    11    6    7 2
    12    6   10 1
    13    7    8 1
    14    7   35 1
    15    8    9 2
    16   10   17 1
    17   10   11 2
    18   11   12 1
    19   11   36 1
    20   12   13 am
    21   12   19 1
    22   13   14 2
    23   13   15 am
    24   15   16 1
    25   15   17 am
    26   17   18 2
    27   19   23 1
    28   19   20 1
    29   19   37 1
    30   20   21 1
    31   20   38 1
    32   20   39 1
    33   21   22 1
    34   21   30 1
    35   21   40 1
    36   22   23 1
    37   22   24 1
    38   22   41 1
    39   24   25 1
    40   24   42 1
    41   24   43 1
    42   25   26 1
    43   26   27 2
    44   26   28 1
    45   26   29 1
    46   30   44 1
    47   31   45 1
    48   31   46 1
    49   31   47 1
@<TRIPOS>MOLECULE
CHEMBL415447__22
   48    50     0     0     0
SMALL
USER_CHARGES

@<TRIPOS>ATOM
      1 C1         -0.0184    1.5028    0.0103 C.3       1 <0>        -0.1191
      2 C2          0.0021   -0.0041    0.0020 C.2       1 <0>        -0.1268
      3 C3         -1.1526   -0.6864    0.0038 C.2       1 <0>        -0.1234
      4 C4         -1.1244   -2.1624   -0.0049 C.2       1 <0>         0.4103
      5 O1         -2.1593   -2.7967   -0.0038 O.2       1 <0>        -0.3957
      6 C5          0.1886   -2.8631   -0.0154 C.2       1 <0>        -0.0107
      7 C6          1.3386   -2.1349   -0.0169 C.2       1 <0>        -0.1554
      8 C7          1.2933   -0.7205   -0.0142 C.2       1 <0>         0.4069
      9 O2          2.3319   -0.0864   -0.0207 O.2       1 <0>        -0.4163
     10 C8          0.2431   -4.3314   -0.0236 C.2       1 <0>        -0.2528
     11 C9          0.8635   -5.0285    1.0015 C.2       1 <0>         0.2151
     12 N1          0.8928   -6.3857    0.9583 N.am      1 <0>        -0.5183
     13 C10         0.3354   -7.0679   -0.0542 C.2       1 <0>         0.6970
     14 O3          0.3900   -8.2822   -0.0445 O.2       1 <0>        -0.5097
     15 N2         -0.2815   -6.4540   -1.0781 N.am      1 <0>        -0.6549
     16 H1         -0.6729   -6.9827   -1.7910 H         1 <0>         0.4342
     17 C11        -0.3657   -5.1075   -1.1191 C.2       1 <0>         0.5679
     18 O4         -0.9273   -4.5470   -2.0413 O.2       1 <0>        -0.4976
     19 C12         1.5486   -7.1220    2.0418 C.3       1 <0>         0.2976
     20 C13         0.5243   -8.0229    2.7767 C.3       1 <0>        -0.1961
     21 C14         1.4599   -9.1142    3.3645 C.3       1 <0>         0.0817
     22 C15         2.5460   -9.2367    2.2742 C.3       1 <0>         0.0964
     23 O5          2.5286   -8.0266    1.5080 O.3       1 <0>        -0.3467
     24 C16         3.9180   -9.4185    2.9263 C.3       1 <0>         0.1381
     25 O6          4.9001   -9.6473    1.9138 O.3       1 <0>        -0.7571
     26 P1          6.4590   -9.8814    2.2412 P.3       1 <0>         2.2126
     27 O7          6.9913   -8.7008    3.0837 O.2       1 <0>        -1.1088
     28 O8          6.6268  -11.1968    3.0341 O.3       1 <0>        -1.1082
     29 O9          7.2884   -9.9751    0.8644 O.3       1 <0>        -0.8973
     30 O10         2.0287   -8.6834    4.6027 O.3       1 <0>        -0.5465
     31 C17        -2.4685    0.0479    0.0150 C.3       1 <0>        -0.1157
     32 H2          1.0042    1.8801    0.0026 H         1 <0>         0.0814
     33 H3         -0.5455    1.8639   -0.8728 H         1 <0>         0.0809
     34 H4         -0.5286    1.8543    0.9071 H         1 <0>         0.0823
     35 H5          2.2930   -2.6404   -0.0245 H         1 <0>         0.1591
     36 H6          1.3188   -4.4984    1.8249 H         1 <0>         0.1881
     37 H7          2.0152   -6.4285    2.7414 H         1 <0>         0.1275
     38 H8          0.0152   -7.4736    3.5687 H         1 <0>         0.0978
     39 H9         -0.1919   -8.4545    2.0775 H         1 <0>         0.1070
     40 H10         0.9266  -10.0567    3.4885 H         1 <0>         0.0924
     41 H11         2.3269  -10.0867    1.6279 H         1 <0>         0.1074
     42 H12         4.1761   -8.5197    3.4863 H         1 <0>         0.0678
     43 H13         3.8883  -10.2723    3.6032 H         1 <0>         0.0682
     44 H14         8.2373  -10.1161    0.9857 H         1 <0>         0.4139
     45 H15         1.3767   -8.5072    5.2948 H         1 <0>         0.3813
     46 H16        -2.7911    0.2312   -1.0099 H         1 <0>         0.0843
     47 H17        -3.2168   -0.5553    0.5290 H         1 <0>         0.0794
     48 H18        -2.3495    0.9990    0.5340 H         1 <0>         0.0804
@<TRIPOS>BOND
     1    1    2 1
     2    1   32 1
     3    1   33 1
     4    1   34 1
     5    2    8 1
     6    2    3 2
     7    3    4 1
     8    3   31 1
     9    4    5 2
    10    4    6 1
    11    6    7 2
    12    6   10 1
    13    7    8 1
    14    7   35 1
    15    8    9 2
    16   10   17 1
    17   10   11 2
    18   11   12 1
    19   11   36 1
    20   12   13 am
    21   12   19 1
    22   13   14 2
    23   13   15 am
    24   15   16 1
    25   15   17 am
    26   17   18 2
    27   19   23 1
    28   19   20 1
    29   19   37 1
    30   20   21 1
    31   20   38 1
    32   20   39 1
    33   21   22 1
    34   21   30 1
    35   21   40 1
    36   22   23 1
    37   22   24 1
    38   22   41 1
    39   24   25 1
    40   24   42 1
    41   24   43 1
    42   25   26 1
    43   26   27 2
    44   26   28 1
    45   26   29 1
    46   29   44 1
    47   30   45 1
    48   31   46 1
    49   31   47 1
    50   31   48 1
@<TRIPOS>MOLECULE
CHEMBL415447__23
   46    48     0     0     0
SMALL
USER_CHARGES

@<TRIPOS>ATOM
      1 C1         -0.0184    1.5028    0.0103 C.3       1 <0>        -0.1119
      2 C2          0.0021   -0.0041    0.0020 C.2       1 <0>        -0.1368
      3 C3         -1.1514   -0.6862    0.0038 C.2       1 <0>        -0.1190
      4 C4         -1.1376   -2.1610   -0.0037 C.2       1 <0>         0.4032
      5 O1         -2.1816   -2.7802   -0.0021 O.2       1 <0>        -0.3889
      6 C5          0.1605   -2.8865   -0.0139 C.2       1 <0>         0.0287
      7 C6          1.3250   -2.1826   -0.0161 C.2       1 <0>        -0.2086
      8 C7          1.2939   -0.7214   -0.0142 C.2       1 <0>         0.4157
      9 O2          2.3358   -0.0932   -0.0207 O.2       1 <0>        -0.4444
     10 C8          0.1855   -4.3570   -0.0211 C.2       1 <0>        -0.3178
     11 C9          0.7909   -5.0668    1.0026 C.2       1 <0>         0.1920
     12 N1          0.7878   -6.4171    0.9519 N.pl3     1 <0>        -0.5124
     13 C10         0.2066   -7.0830   -0.0771 C.2       1 <0>         0.6152
     14 O3          0.2340   -8.4309   -0.0757 O.3       1 <0>        -0.6451
     15 N2         -0.3822   -6.4639   -1.0741 N.2       1 <0>        -0.6552
     16 C11        -0.4387   -5.1238   -1.1154 C.2       1 <0>         0.5462
     17 O4         -0.9908   -4.5518   -2.0410 O.2       1 <0>        -0.5855
     18 C12         1.4255   -7.1772    2.0298 C.3       1 <0>         0.2945
     19 C13         0.3795   -8.0577    2.7587 C.3       1 <0>        -0.1872
     20 C14         1.2881   -9.1760    3.3383 C.3       1 <0>         0.0794
     21 C15         2.3704   -9.3174    2.2465 C.3       1 <0>         0.1010
     22 O5          2.3827   -8.1018    1.4891 O.3       1 <0>        -0.3341
     23 C16         3.7378   -9.5378    2.8967 C.3       1 <0>         0.1379
     24 O6          4.7136   -9.7835    1.8821 O.3       1 <0>        -0.7549
     25 P1          6.2663  -10.0584    2.2071 P.3       1 <0>         2.1397
     26 O7          6.8357   -8.8810    3.0698 O.2       1 <0>        -1.1941
     27 O8          6.4037  -11.4017    3.0014 O.3       1 <0>        -1.1956
     28 O9          7.0705  -10.1598    0.8664 O.3       1 <0>        -1.1742
     29 O10         1.8676   -8.7683    4.5792 O.3       1 <0>        -0.5444
     30 C17        -2.4639    0.0543    0.0142 C.3       1 <0>        -0.1130
     31 H1          1.0042    1.8801    0.0026 H         1 <0>         0.0776
     32 H2         -0.5455    1.8639   -0.8728 H         1 <0>         0.0745
     33 H3         -0.5286    1.8543    0.9071 H         1 <0>         0.0755
     34 H4          2.2712   -2.7031   -0.0232 H         1 <0>         0.1525
     35 H5          1.2580   -4.5495    1.8276 H         1 <0>         0.1515
     36 H6          1.9093   -6.5004    2.7342 H         1 <0>         0.0939
     37 H7         -0.1156   -7.5018    3.5549 H         1 <0>         0.0755
     38 H8         -0.3474   -8.4665    2.0568 H         1 <0>         0.1127
     39 H9          0.7317  -10.1059    3.4557 H         1 <0>         0.0783
     40 H10         2.1302  -10.1571    1.5943 H         1 <0>         0.0961
     41 H11         4.0181   -8.6496    3.4630 H         1 <0>         0.0442
     42 H12         3.6872  -10.3954    3.5675 H         1 <0>         0.0404
     43 H13         1.2205   -8.5811    5.2729 H         1 <0>         0.3646
     44 H14        -2.7853    0.2384   -1.0110 H         1 <0>         0.0805
     45 H15        -3.2152   -0.5451    0.5284 H         1 <0>         0.0775
     46 H16        -2.3405    1.0051    0.5326 H         1 <0>         0.0740
@<TRIPOS>BOND
     1    1    2 1
     2    1   31 1
     3    1   32 1
     4    1   33 1
     5    2    8 1
     6    2    3 2
     7    3    4 1
     8    3   30 1
     9    4    5 2
    10    4    6 1
    11    6    7 2
    12    6   10 1
    13    7    8 1
    14    7   34 1
    15    8    9 2
    16   10   16 1
    17   10   11 2
    18   11   12 1
    19   11   35 1
    20   12   13 1
    21   12   18 1
    22   13   14 1
    23   13   15 2
    24   15   16 1
    25   16   17 2
    26   18   22 1
    27   18   19 1
    28   18   36 1
    29   19   20 1
    30   19   37 1
    31   19   38 1
    32   20   21 1
    33   20   29 1
    34   20   39 1
    35   21   22 1
    36   21   23 1
    37   21   40 1
    38   23   24 1
    39   23   41 1
    40   23   42 1
    41   24   25 1
    42   25   26 2
    43   25   27 1
    44   25   28 1
    45   29   43 1
    46   30   44 1
    47   30   45 1
    48   30   46 1
@<TRIPOS>MOLECULE
CHEMBL386685
   44    48     0     0     0
SMALL
USER_CHARGES

@<TRIPOS>ATOM
      1 C1          0.1920    1.9161    0.2395 C.ar      1 <0>        -0.0961
      2 C2          1.4511    2.5131    0.2131 C.ar      1 <0>        -0.1098
      3 C3          2.5815    1.7597    0.1354 C.ar      1 <0>        -0.1019
      4 C4          2.4822    0.3575    0.0809 C.ar      1 <0>        -0.0306
      5 C5          1.1995   -0.2498    0.1079 C.ar      1 <0>        -0.0238
      6 C6          0.0565    0.5624    0.1885 C.ar      1 <0>        -0.1098
      7 C7          1.0935   -1.6514    0.0527 C.ar      1 <0>        -0.1002
      8 C8          2.2105   -2.4184   -0.0259 C.ar      1 <0>        -0.0511
      9 C9          3.4889   -1.8307   -0.0530 C.ar      1 <0>        -0.1793
     10 C10         3.6204   -0.4504    0.0002 C.ar      1 <0>        -0.0591
     11 C11         5.0987   -0.1606   -0.0486 C.3       1 <0>         0.2433
     12 O1          5.7622   -1.4251   -0.1293 O.3       1 <0>        -0.2950
     13 C12         4.8446   -2.4063   -0.1326 C.2       1 <0>         0.5191
     14 O2          5.0947   -3.5935   -0.1935 O.2       1 <0>        -0.4385
     15 C13         5.5234    0.5660    1.2015 C.ar      1 <0>        -0.1032
     16 C14         5.8766   -0.1505    2.3300 C.ar      1 <0>        -0.0749
     17 C15         6.2659    0.5132    3.4773 C.ar      1 <0>        -0.1409
     18 C16         6.3028    1.8999    3.4963 C.ar      1 <0>         0.1210
     19 C17         5.9484    2.6166    2.3625 C.ar      1 <0>        -0.1415
     20 C18         5.5648    1.9480    1.2161 C.ar      1 <0>        -0.0787
     21 O3          6.6850    2.5552    4.6239 O.3       1 <0>        -0.4977
     22 C19         5.4217    0.6700   -1.2638 C.ar      1 <0>        -0.1152
     23 C20         6.7236    1.0719   -1.4989 C.ar      1 <0>        -0.0620
     24 C21         7.0222    1.8338   -2.6119 C.ar      1 <0>        -0.1468
     25 C22         6.0146    2.1952   -3.4943 C.ar      1 <0>         0.1251
     26 C23         4.7092    1.7903   -3.2565 C.ar      1 <0>        -0.1452
     27 C24         4.4166    1.0242   -2.1448 C.ar      1 <0>        -0.0827
     28 O4          6.3058    2.9450   -4.5897 O.3       1 <0>        -0.4982
     29 H1         -0.6894    2.5367    0.3060 H         1 <0>         0.1307
     30 H2          1.5307    3.5893    0.2544 H         1 <0>         0.1302
     31 H3          3.5506    2.2360    0.1154 H         1 <0>         0.1333
     32 H4         -0.9261    0.1148    0.2103 H         1 <0>         0.1359
     33 H5          0.1200   -2.1187    0.0733 H         1 <0>         0.1436
     34 H6          2.1171   -3.4935   -0.0677 H         1 <0>         0.1399
     35 H7          5.8478   -1.2300    2.3147 H         1 <0>         0.1272
     36 H8          6.5410   -0.0469    4.3587 H         1 <0>         0.1352
     37 H9          5.9762    3.6962    2.3749 H         1 <0>         0.1360
     38 H10         5.2930    2.5053    0.3319 H         1 <0>         0.1326
     39 H11         7.6353    2.7263    4.6764 H         1 <0>         0.3950
     40 H12         7.5076    0.7903   -0.8116 H         1 <0>         0.1338
     41 H13         8.0392    2.1481   -2.7947 H         1 <0>         0.1360
     42 H14         3.9230    2.0704   -3.9419 H         1 <0>         0.1348
     43 H15         3.4012    0.7050   -1.9615 H         1 <0>         0.1337
     44 H16         6.5339    2.4254   -5.3727 H         1 <0>         0.3959
@<TRIPOS>BOND
     1    1    6 ar
     2    1    2 ar
     3    1   29 1
     4    2    3 ar
     5    2   30 1
     6    3    4 ar
     7    3   31 1
     8    4   10 ar
     9    4    5 ar
    10    5    6 ar
    11    5    7 ar
    12    6   32 1
    13    7    8 ar
    14    7   33 1
    15    8    9 ar
    16    8   34 1
    17    9   13 1
    18    9   10 ar
    19   10   11 1
    20   11   12 1
    21   11   15 1
    22   11   22 1
    23   12   13 1
    24   13   14 2
    25   15   20 ar
    26   15   16 ar
    27   16   17 ar
    28   16   35 1
    29   17   18 ar
    30   17   36 1
    31   18   19 ar
    32   18   21 1
    33   19   20 ar
    34   19   37 1
    35   20   38 1
    36   21   39 1
    37   22   27 ar
    38   22   23 ar
    39   23   24 ar
    40   23   40 1
    41   24   25 ar
    42   24   41 1
    43   25   26 ar
    44   25   28 1
    45   26   27 ar
    46   26   42 1
    47   27   43 1
    48   28   44 1
@<TRIPOS>MOLECULE
CHEMBL167164
   57    61     0     0     0
SMALL
USER_CHARGES

@<TRIPOS>ATOM
      1 C1         -0.0184    1.5028    0.0103 C.3       1 <0>        -0.1120
      2 C2          0.0021   -0.0041    0.0020 C.2       1 <0>         0.3968
      3 N1          0.0048   -0.6148   -1.1450 N.2       1 <0>        -0.5255
      4 C3          0.0227   -1.9611   -1.2330 C.ar      1 <0>         0.1850
      5 C4          0.0260   -2.6149   -2.4783 C.ar      1 <0>        -0.1170
      6 C5          0.0444   -3.9657   -2.5660 C.ar      1 <0>        -0.0519
      7 C6          0.0606   -4.7762   -1.4121 C.ar      1 <0>        -0.0681
      8 C7          0.0797   -6.1761   -1.5078 C.ar      1 <0>        -0.1010
      9 C8          0.0954   -6.9314   -0.3736 C.ar      1 <0>        -0.0992
     10 C9          0.0929   -6.3351    0.8837 C.ar      1 <0>        -0.0846
     11 C10         0.0745   -4.9773    1.0131 C.ar      1 <0>        -0.0932
     12 C11         0.0581   -4.1723   -0.1305 C.ar      1 <0>         0.0046
     13 C12         0.0387   -2.7179   -0.0472 C.ar      1 <0>        -0.1999
     14 C13         0.0353   -2.0080    1.2317 C.2       1 <0>         0.5432
     15 N2          0.0222   -0.6546    1.1925 N.am      1 <0>        -0.6436
     16 O1          0.0487   -2.6106    2.2903 O.2       1 <0>        -0.5024
     17 C14         0.1100   -7.2001    2.1176 C.3       1 <0>         0.1635
     18 N3          1.4967   -7.4617    2.5113 N.pl3     1 <0>        -0.7379
     19 C15         1.7667   -8.2441    3.6312 C.ar      1 <0>         0.2508
     20 C16         0.7192   -8.7865    4.3789 C.ar      1 <0>        -0.2152
     21 C17         0.9560   -9.5531    5.4755 C.ar      1 <0>         0.0233
     22 C18         2.2778   -9.8234    5.8909 C.ar      1 <0>        -0.2087
     23 C19         3.3256   -9.2670    5.1225 C.ar      1 <0>        -0.0463
     24 C20         3.0791   -8.4948    4.0084 C.ar      1 <0>        -0.1703
     25 S1          4.7863   -9.8269    5.9536 S.3       1 <0>         0.2086
     26 N4          4.0939  -10.7099    7.1954 N.am      1 <0>        -0.5766
     27 C21         2.7684  -10.6058    7.0167 C.2       1 <0>         0.5229
     28 O2          1.9918  -11.1539    7.7802 O.2       1 <0>        -0.4774
     29 C22         4.7898  -11.4428    8.2560 C.3       1 <0>         0.1171
     30 H1          5.8666  -11.3337    8.1267 H         1 <0>         0.0792
     31 C23         4.3801  -10.8797    9.6183 C.3       1 <0>        -0.0887
     32 C24         4.8657   -9.4339    9.7396 C.3       1 <0>        -0.1744
     33 C25         4.4622   -8.8793   11.0815 C.2       1 <0>         0.4931
     34 O3          3.8434   -9.5759   11.8679 O.co2     1 <0>        -0.6959
     35 O4          4.7544   -7.7341   11.3807 O.co2     1 <0>        -0.7206
     36 C26         4.4205  -12.9020    8.1839 C.2       1 <0>         0.4972
     37 O5          5.2169  -13.7511    8.5461 O.co2     1 <0>        -0.7020
     38 O6          3.3252  -13.2336    7.7633 O.co2     1 <0>        -0.6605
     39 H2          1.0042    1.8801    0.0026 H         1 <0>         0.1000
     40 H3         -0.5455    1.8639   -0.8728 H         1 <0>         0.1042
     41 H4         -0.5286    1.8543    0.9071 H         1 <0>         0.0877
     42 H5          0.0132   -2.0267   -3.3839 H         1 <0>         0.1392
     43 H6          0.0464   -4.4323   -3.5400 H         1 <0>         0.1376
     44 H7          0.0816   -6.6531   -2.4767 H         1 <0>         0.1325
     45 H8          0.1097   -8.0085   -0.4517 H         1 <0>         0.1304
     46 H9          0.0724   -4.5259    1.9943 H         1 <0>         0.1583
     47 H10        -0.4072   -6.6870    2.9282 H         1 <0>         0.0730
     48 H11        -0.3919   -8.1443    1.9064 H         1 <0>         0.0729
     49 H12         2.2267   -7.0898    1.9920 H         1 <0>         0.4002
     50 H13        -0.3002   -8.5923    4.0796 H         1 <0>         0.1235
     51 H14         0.1257   -9.9589    6.0345 H         1 <0>         0.1302
     52 H15         3.8986   -8.0852    3.4366 H         1 <0>         0.1278
     53 H16         3.2944  -10.9073    9.7113 H         1 <0>         0.0767
     54 H17         4.8279  -11.4810   10.4096 H         1 <0>         0.0727
     55 H18         5.9514   -9.4063    9.6467 H         1 <0>         0.0491
     56 H19         4.4179   -8.8326    8.9484 H         1 <0>         0.0505
     57 H20         0.0232   -0.1477    2.0195 H         1 <0>         0.4209
@<TRIPOS>BOND
     1    1    2 1
     2    1   39 1
     3    1   40 1
     4    1   41 1
     5    2   15 1
     6    2    3 2
     7    3    4 1
     8    4   13 ar
     9    4    5 ar
    10    5    6 ar
    11    5   42 1
    12    6    7 ar
    13    6   43 1
    14    7   12 ar
    15    7    8 ar
    16    8    9 ar
    17    8   44 1
    18    9   10 ar
    19    9   45 1
    20   10   11 ar
    21   10   17 1
    22   11   12 ar
    23   11   46 1
    24   12   13 ar
    25   13   14 1
    26   14   15 am
    27   14   16 2
    28   15   57 1
    29   17   18 1
    30   17   47 1
    31   17   48 1
    32   18   19 1
    33   18   49 1
    34   19   24 ar
    35   19   20 ar
    36   20   21 ar
    37   20   50 1
    38   21   22 ar
    39   21   51 1
    40   22   27 1
    41   22   23 ar
    42   23   24 ar
    43   23   25 1
    44   24   52 1
    45   25   26 1
    46   26   27 am
    47   26   29 1
    48   27   28 2
    49   29   30 1
    50   29   31 1
    51   29   36 1
    52   31   32 1
    53   31   53 1
    54   31   54 1
    55   32   33 1
    56   32   55 1
    57   32   56 1
    58   33   34 2
    59   33   35 1
    60   36   37 2
    61   36   38 1
@<TRIPOS>MOLECULE
CHEMBL167164__1
   57    61     0     0     0
SMALL
USER_CHARGES

@<TRIPOS>ATOM
      1 C1         -0.0184    1.5028    0.0103 C.3       1 <0>        -0.1194
      2 C2          0.0021   -0.0041    0.0020 C.2       1 <0>         0.4337
      3 N1         -1.1729   -0.6578    0.0043 N.pl3     1 <0>        -0.6189
      4 C3         -1.2093   -2.0353   -0.0026 C.ar      1 <0>         0.1853
      5 C4         -2.4177   -2.7400   -0.0005 C.ar      1 <0>        -0.1616
      6 C5         -2.4452   -4.0958   -0.0074 C.ar      1 <0>        -0.0332
      7 C6         -1.2552   -4.8506   -0.0169 C.ar      1 <0>        -0.0787
      8 C7         -1.2833   -6.2540   -0.0241 C.ar      1 <0>        -0.1006
      9 C8         -0.1140   -6.9534   -0.0336 C.ar      1 <0>        -0.0987
     10 C9          1.1130   -6.2969   -0.0359 C.ar      1 <0>        -0.0806
     11 C10         1.1769   -4.9345   -0.0287 C.ar      1 <0>        -0.0902
     12 C11        -0.0042   -4.1854   -0.0198 C.ar      1 <0>         0.0123
     13 C12         0.0072   -2.7290   -0.0124 C.ar      1 <0>        -0.2006
     14 C13         1.2508   -1.9516   -0.0148 C.2       1 <0>         0.5269
     15 N2          1.1582   -0.6068   -0.0123 N.2       1 <0>        -0.5832
     16 O1          2.3374   -2.5059   -0.0232 O.2       1 <0>        -0.4745
     17 C14         2.3873   -7.1014   -0.0460 C.3       1 <0>         0.1624
     18 N3          2.7938   -7.3550   -1.4304 N.pl3     1 <0>        -0.7376
     19 C15         3.9502   -8.0846   -1.6940 C.ar      1 <0>         0.2516
     20 C16         4.7229   -8.5817   -0.6420 C.ar      1 <0>        -0.2149
     21 C17         5.8553   -9.2963   -0.8725 C.ar      1 <0>         0.0242
     22 C18         6.2838   -9.5571   -2.1919 C.ar      1 <0>        -0.2085
     23 C19         5.4899   -9.0471   -3.2443 C.ar      1 <0>        -0.0453
     24 C20         4.3397   -8.3275   -3.0042 C.ar      1 <0>        -0.1702
     25 S1          6.3477   -9.5781   -4.7003 S.3       1 <0>         0.2127
     26 N4          7.6303  -10.3944   -4.0007 N.am      1 <0>        -0.5695
     27 C21         7.4462  -10.2882   -2.6761 C.2       1 <0>         0.5315
     28 O2          8.2350  -10.7924   -1.8950 O.2       1 <0>        -0.5009
     29 C22         8.7254  -11.0809   -4.6905 C.3       1 <0>         0.1145
     30 H1          8.5915  -10.9870   -5.7682 H         1 <0>         0.0805
     31 C23        10.0588  -10.4494   -4.2854 C.3       1 <0>        -0.0861
     32 C24        10.1103   -9.0034   -4.7829 C.3       1 <0>        -0.1758
     33 C25        11.4237   -8.3814   -4.3838 C.2       1 <0>         0.4934
     34 O3         12.2426   -9.0341   -3.7594 O.co2     1 <0>        -0.6954
     35 O4         11.6673   -7.2255   -4.6854 O.co2     1 <0>        -0.7210
     36 C26         8.7236  -12.5389   -4.3092 C.2       1 <0>         0.5022
     37 O5          7.8854  -12.9650   -3.5332 O.co2     1 <0>        -0.6763
     38 O6          9.5605  -13.2922   -4.7768 O.co2     1 <0>        -0.6930
     39 H2          1.0042    1.8801    0.0026 H         1 <0>         0.1097
     40 H3         -0.5455    1.8639   -0.8728 H         1 <0>         0.0954
     41 H4         -0.5286    1.8543    0.9071 H         1 <0>         0.0950
     42 H5         -3.3486   -2.1925    0.0071 H         1 <0>         0.1361
     43 H6         -3.3968   -4.6066   -0.0052 H         1 <0>         0.1392
     44 H7         -2.2280   -6.7773   -0.0218 H         1 <0>         0.1321
     45 H8         -0.1399   -8.0331   -0.0391 H         1 <0>         0.1313
     46 H9          2.1351   -4.4363   -0.0306 H         1 <0>         0.1619
     47 H10         3.1720   -6.5455    0.4671 H         1 <0>         0.0748
     48 H11         2.2217   -8.0506    0.4638 H         1 <0>         0.0734
     49 H12         2.2574   -7.0147   -2.1634 H         1 <0>         0.4002
     50 H13         4.4140   -8.3938    0.3757 H         1 <0>         0.1238
     51 H14         6.4328   -9.6679   -0.0389 H         1 <0>         0.1300
     52 H15         3.7491   -7.9528   -3.8271 H         1 <0>         0.1281
     53 H16        10.1525  -10.4636   -3.1995 H         1 <0>         0.0727
     54 H17        10.8783  -11.0154   -4.7282 H         1 <0>         0.0798
     55 H18        10.0166   -8.9892   -5.8688 H         1 <0>         0.0488
     56 H19         9.2908   -8.4374   -4.3401 H         1 <0>         0.0498
     57 H20        -2.0025   -0.1552    0.0111 H         1 <0>         0.4213
@<TRIPOS>BOND
     1    1    2 1
     2    1   39 1
     3    1   40 1
     4    1   41 1
     5    2   15 2
     6    2    3 1
     7    3    4 1
     8    3   57 1
     9    4   13 ar
    10    4    5 ar
    11    5    6 ar
    12    5   42 1
    13    6    7 ar
    14    6   43 1
    15    7   12 ar
    16    7    8 ar
    17    8    9 ar
    18    8   44 1
    19    9   10 ar
    20    9   45 1
    21   10   11 ar
    22   10   17 1
    23   11   12 ar
    24   11   46 1
    25   12   13 ar
    26   13   14 1
    27   14   15 1
    28   14   16 2
    29   17   18 1
    30   17   47 1
    31   17   48 1
    32   18   19 1
    33   18   49 1
    34   19   24 ar
    35   19   20 ar
    36   20   21 ar
    37   20   50 1
    38   21   22 ar
    39   21   51 1
    40   22   27 1
    41   22   23 ar
    42   23   24 ar
    43   23   25 1
    44   24   52 1
    45   25   26 1
    46   26   27 am
    47   26   29 1
    48   27   28 2
    49   29   30 1
    50   29   31 1
    51   29   36 1
    52   31   32 1
    53   31   53 1
    54   31   54 1
    55   32   33 1
    56   32   55 1
    57   32   56 1
    58   33   34 2
    59   33   35 1
    60   36   37 2
    61   36   38 1
@<TRIPOS>MOLECULE
CHEMBL306149
   48    50     0     0     0
SMALL
USER_CHARGES

@<TRIPOS>ATOM
      1 C1         -0.0184    1.5028    0.0103 C.3       1 <0>        -0.0960
      2 C2          0.0021   -0.0041    0.0020 C.2       1 <0>         0.1019
      3 C3          0.0075   -0.7769   -1.1038 C.2       1 <0>        -0.1369
      4 C4          0.0294   -2.1672   -0.6429 C.2       1 <0>        -0.2799
      5 C5          0.0357   -2.1195    0.7587 C.2       1 <0>         0.3476
      6 N1          0.0241   -0.8055    1.1224 N.pl3     1 <0>        -0.5438
      7 H1          0.0285   -0.4820    2.0369 H         1 <0>         0.4211
      8 N2          0.0557   -3.2684    1.4513 N.2       1 <0>        -0.5923
      9 C6          0.0694   -4.4308    0.8402 C.2       1 <0>         0.6554
     10 N3          0.0646   -4.5355   -0.5195 N.am      1 <0>        -0.6618
     11 C7          0.0444   -3.4224   -1.2870 C.2       1 <0>         0.5761
     12 O1          0.0391   -3.5013   -2.5035 O.2       1 <0>        -0.4998
     13 N4          0.0897   -5.5772    1.5944 N.pl3     1 <0>        -0.8238
     14 S1         -0.0085   -0.2223   -2.7761 S.3       1 <0>         0.0441
     15 C8          1.6970   -0.0647   -3.1894 C.ar      1 <0>        -0.0866
     16 C9          2.6729   -0.3728   -2.2438 C.ar      1 <0>        -0.1301
     17 C10         3.9959   -0.2515   -2.5614 C.ar      1 <0>        -0.0504
     18 C11         4.3705    0.1819   -3.8372 C.ar      1 <0>        -0.1116
     19 C12         3.3888    0.4901   -4.7845 C.ar      1 <0>        -0.0678
     20 C13         2.0674    0.3623   -4.4629 C.ar      1 <0>        -0.1049
     21 C14         5.7979    0.3143   -4.1829 C.2       1 <0>         0.5500
     22 O2          6.6506    0.0465   -3.3583 O.2       1 <0>        -0.5573
     23 N5          6.1575    0.7321   -5.4128 N.am      1 <0>        -0.6744
     24 C15         7.5756    0.8636   -5.7562 C.3       1 <0>         0.0729
     25 C16         7.7349    1.8874   -6.8820 C.3       1 <0>        -0.0812
     26 C17         7.3104    3.2687   -6.3791 C.3       1 <0>        -0.1776
     27 C18         7.4673    4.2771   -7.4879 C.2       1 <0>         0.4913
     28 O3          7.8803    3.9237   -8.5793 O.co2     1 <0>        -0.6975
     29 O4          7.1813    5.4462   -7.2936 O.co2     1 <0>        -0.7200
     30 C19         8.1080   -0.4706   -6.2116 C.2       1 <0>         0.4969
     31 O5          7.3400   -1.3941   -6.4211 O.co2     1 <0>        -0.6971
     32 O6          9.3067   -0.6266   -6.3704 O.co2     1 <0>        -0.7017
     33 H2          1.0042    1.8801    0.0026 H         1 <0>         0.0866
     34 H3         -0.5455    1.8639   -0.8728 H         1 <0>         0.0995
     35 H4         -0.5286    1.8543    0.9071 H         1 <0>         0.0720
     36 H5          0.0936   -5.5207    2.5628 H         1 <0>         0.4262
     37 H6          0.1000   -6.4440    1.1591 H         1 <0>         0.4154
     38 H7          2.3831   -0.7075   -1.2588 H         1 <0>         0.1182
     39 H8          4.7519   -0.4898   -1.8279 H         1 <0>         0.1326
     40 H9          3.6752    0.8250   -5.7705 H         1 <0>         0.1343
     41 H10         1.3088    0.5965   -5.1951 H         1 <0>         0.1303
     42 H11         5.4773    0.9458   -6.0706 H         1 <0>         0.3904
     43 H12         8.1321    1.1972   -4.8803 H         1 <0>         0.0780
     44 H13         8.7775    1.9205   -7.1982 H         1 <0>         0.0768
     45 H14         7.1081    1.5997   -7.7261 H         1 <0>         0.0568
     46 H15         6.2678    3.2356   -6.0628 H         1 <0>         0.0511
     47 H16         7.9372    3.5564   -5.5349 H         1 <0>         0.0523
     48 H17         0.0755   -5.4109   -0.9372 H         1 <0>         0.4146
@<TRIPOS>BOND
     1    1    2 1
     2    1   33 1
     3    1   34 1
     4    1   35 1
     5    2    6 1
     6    2    3 2
     7    3    4 1
     8    3   14 1
     9    4   11 1
    10    4    5 2
    11    5    6 1
    12    5    8 1
    13    6    7 1
    14    8    9 2
    15    9   10 1
    16    9   13 1
    17   10   11 am
    18   10   48 1
    19   11   12 2
    20   13   36 1
    21   13   37 1
    22   14   15 1
    23   15   20 ar
    24   15   16 ar
    25   16   17 ar
    26   16   38 1
    27   17   18 ar
    28   17   39 1
    29   18   19 ar
    30   18   21 1
    31   19   20 ar
    32   19   40 1
    33   20   41 1
    34   21   22 2
    35   21   23 am
    36   23   24 1
    37   23   42 1
    38   24   25 1
    39   24   30 1
    40   24   43 1
    41   25   26 1
    42   25   44 1
    43   25   45 1
    44   26   27 1
    45   26   46 1
    46   26   47 1
    47   27   28 2
    48   27   29 1
    49   30   31 2
    50   30   32 1
@<TRIPOS>MOLECULE
CHEMBL306149__1
   47    49     0     0     0
SMALL
USER_CHARGES

@<TRIPOS>ATOM
      1 C1         -0.0184    1.5028    0.0103 C.3       1 <0>        -0.0824
      2 C2          0.0021   -0.0041    0.0020 C.2       1 <0>         0.0632
      3 C3          0.0075   -0.7745   -1.1035 C.2       1 <0>        -0.1378
      4 C4          0.0294   -2.1674   -0.6475 C.ar      1 <0>        -0.2941
      5 C5          0.0357   -2.1222    0.7595 C.ar      1 <0>         0.3542
      6 N1          0.0241   -0.8045    1.1244 N.pl3     1 <0>        -0.5718
      7 H1          0.0287   -0.4805    2.0386 H         1 <0>         0.4036
      8 N2          0.0553   -3.2705    1.4344 N.ar      1 <0>        -0.6750
      9 C6          0.0684   -4.4274    0.7943 C.ar      1 <0>         0.6089
     10 N3          0.0630   -4.5089   -0.5307 N.ar      1 <0>        -0.6712
     11 C7          0.0439   -3.4153   -1.2828 C.ar      1 <0>         0.5019
     12 O1          0.0384   -3.5044   -2.6342 O.3       1 <0>        -0.6586
     13 N4          0.0891   -5.5981    1.5339 N.pl3     1 <0>        -0.8414
     14 S1         -0.0095   -0.2156   -2.7745 S.3       1 <0>         0.0354
     15 C8          1.6958   -0.0561   -3.1880 C.ar      1 <0>        -0.0667
     16 C9          2.6723   -0.3661   -2.2435 C.ar      1 <0>        -0.1270
     17 C10         3.9950   -0.2429   -2.5612 C.ar      1 <0>        -0.0477
     18 C11         4.3689    0.1944   -3.8360 C.ar      1 <0>        -0.1295
     19 C12         3.3866    0.5044   -4.7821 C.ar      1 <0>        -0.0693
     20 C13         2.0654    0.3744   -4.4606 C.ar      1 <0>        -0.1156
     21 C14         5.7960    0.3288   -4.1817 C.2       1 <0>         0.5565
     22 O2          6.6492    0.0593   -3.3581 O.2       1 <0>        -0.5614
     23 N5          6.1549    0.7503   -5.4105 N.am      1 <0>        -0.6799
     24 C15         7.5728    0.8838   -5.7540 C.3       1 <0>         0.0740
     25 C16         7.7310    1.9109   -6.8770 C.3       1 <0>        -0.0797
     26 C17         7.3056    3.2904   -6.3701 C.3       1 <0>        -0.1779
     27 C18         7.4614    4.3019   -7.4763 C.2       1 <0>         0.4925
     28 O3          7.8744    3.9520   -8.5687 O.co2     1 <0>        -0.6994
     29 O4          7.1745    5.4703   -7.2787 O.co2     1 <0>        -0.7222
     30 C19         8.1061   -0.4488   -6.2132 C.2       1 <0>         0.4961
     31 O5          7.3388   -1.3722   -6.4251 O.co2     1 <0>        -0.6931
     32 O6          9.3049   -0.6034   -6.3729 O.co2     1 <0>        -0.7080
     33 H2          1.0042    1.8801    0.0026 H         1 <0>         0.0727
     34 H3         -0.5455    1.8639   -0.8728 H         1 <0>         0.0879
     35 H4         -0.5286    1.8543    0.9071 H         1 <0>         0.0592
     36 H5          0.0937   -5.5594    2.5031 H         1 <0>         0.3955
     37 H6          0.0990   -6.4567    1.0827 H         1 <0>         0.4027
     38 H7          2.3830   -0.7037   -1.2593 H         1 <0>         0.1219
     39 H8          4.7515   -0.4826   -1.8286 H         1 <0>         0.1283
     40 H9          3.6725    0.8422   -5.7672 H         1 <0>         0.1281
     41 H10         1.3065    0.6094   -5.1922 H         1 <0>         0.1259
     42 H11         5.4744    0.9652   -6.0675 H         1 <0>         0.3900
     43 H12         8.1294    1.2154   -4.8774 H         1 <0>         0.0759
     44 H13         8.7735    1.9456   -7.1935 H         1 <0>         0.0741
     45 H14         7.1042    1.6250   -7.7217 H         1 <0>         0.0559
     46 H15         6.2632    3.2556   -6.0537 H         1 <0>         0.0534
     47 H16         7.9324    3.5762   -5.5254 H         1 <0>         0.0517
@<TRIPOS>BOND
     1    1    2 1
     2    1   33 1
     3    1   34 1
     4    1   35 1
     5    2    6 1
     6    2    3 2
     7    3    4 1
     8    3   14 1
     9    4   11 ar
    10    4    5 ar
    11    5    6 1
    12    5    8 ar
    13    6    7 1
    14    8    9 ar
    15    9   10 ar
    16    9   13 1
    17   10   11 ar
    18   11   12 1
    19   13   36 1
    20   13   37 1
    21   14   15 1
    22   15   20 ar
    23   15   16 ar
    24   16   17 ar
    25   16   38 1
    26   17   18 ar
    27   17   39 1
    28   18   19 ar
    29   18   21 1
    30   19   20 ar
    31   19   40 1
    32   20   41 1
    33   21   22 2
    34   21   23 am
    35   23   24 1
    36   23   42 1
    37   24   25 1
    38   24   30 1
    39   24   43 1
    40   25   26 1
    41   25   44 1
    42   25   45 1
    43   26   27 1
    44   26   46 1
    45   26   47 1
    46   27   28 2
    47   27   29 1
    48   30   31 2
    49   30   32 1
@<TRIPOS>MOLECULE
CHEMBL306149__2
   48    50     0     0     0
SMALL
USER_CHARGES

@<TRIPOS>ATOM
      1 C1         -0.0184    1.5028    0.0103 C.3       1 <0>        -0.0941
      2 C2          0.0021   -0.0041    0.0020 C.2       1 <0>         0.0995
      3 C3          0.0076   -0.7800   -1.1029 C.2       1 <0>        -0.1407
      4 C4          0.0285   -2.1661   -0.6351 C.2       1 <0>        -0.2283
      5 C5          0.0342   -2.1138    0.7564 C.2       1 <0>         0.2827
      6 N1          0.0241   -0.8074    1.1199 N.pl3     1 <0>        -0.5485
      7 H1          0.0293   -0.4856    2.0349 H         1 <0>         0.4179
      8 N2          0.0531   -3.2988    1.4536 N.pl3     1 <0>        -0.6298
      9 C6          0.0659   -4.4872    0.7963 C.2       1 <0>         0.6746
     10 N3          0.0615   -4.5750   -0.5163 N.2       1 <0>        -0.6289
     11 C7          0.0433   -3.4750   -1.2874 C.2       1 <0>         0.5594
     12 O1          0.0388   -3.5660   -2.5050 O.2       1 <0>        -0.4774
     13 N4          0.0845   -5.6424    1.5307 N.pl3     1 <0>        -0.8223
     14 S1         -0.0081   -0.2317   -2.7773 S.3       1 <0>         0.0510
     15 C8          1.6976   -0.0760   -3.1908 C.ar      1 <0>        -0.0871
     16 C9          2.6733   -0.3807   -2.2439 C.ar      1 <0>        -0.1295
     17 C10         3.9963   -0.2609   -2.5617 C.ar      1 <0>        -0.0503
     18 C11         4.3713    0.1680   -3.8390 C.ar      1 <0>        -0.1109
     19 C12         3.3898    0.4732   -4.7874 C.ar      1 <0>        -0.0673
     20 C13         2.0683    0.3461   -4.4659 C.ar      1 <0>        -0.1036
     21 C14         5.7987    0.2988   -4.1848 C.2       1 <0>         0.5502
     22 O2          6.6512    0.0335   -3.3591 O.2       1 <0>        -0.5577
     23 N5          6.1587    0.7122   -5.4161 N.am      1 <0>        -0.6742
     24 C15         7.5769    0.8421   -5.7597 C.3       1 <0>         0.0729
     25 C16         7.7366    1.8620   -6.8890 C.3       1 <0>        -0.0813
     26 C17         7.3125    3.2451   -6.3909 C.3       1 <0>        -0.1774
     27 C18         7.4699    4.2496   -7.5033 C.2       1 <0>         0.4913
     28 O3          7.8830    3.8924   -8.5933 O.co2     1 <0>        -0.6971
     29 O4          7.1841    5.4195   -7.3131 O.co2     1 <0>        -0.7205
     30 C19         8.1089   -0.4938   -6.2104 C.2       1 <0>         0.4966
     31 O5          7.3407   -1.4178   -6.4169 O.co2     1 <0>        -0.6961
     32 O6          9.3076   -0.6508   -6.3684 O.co2     1 <0>        -0.7020
     33 H2          1.0042    1.8801    0.0026 H         1 <0>         0.0874
     34 H3         -0.5455    1.8639   -0.8728 H         1 <0>         0.1015
     35 H4         -0.5286    1.8543    0.9071 H         1 <0>         0.0712
     36 H5          0.0884   -5.6011    2.4998 H         1 <0>         0.4089
     37 H6          0.0939   -6.5023    1.0818 H         1 <0>         0.4329
     38 H7          2.3831   -0.7115   -1.2576 H         1 <0>         0.1165
     39 H8          4.7522   -0.4969   -1.8272 H         1 <0>         0.1325
     40 H9          3.6765    0.8050   -5.7744 H         1 <0>         0.1348
     41 H10         1.3100    0.5770   -5.1994 H         1 <0>         0.1310
     42 H11         5.4787    0.9238   -6.0747 H         1 <0>         0.3905
     43 H12         8.1333    1.1785   -4.8849 H         1 <0>         0.0778
     44 H13         8.7793    1.8936   -7.2052 H         1 <0>         0.0768
     45 H14         7.1100    1.5715   -7.7322 H         1 <0>         0.0570
     46 H15         6.2699    3.2134   -6.0748 H         1 <0>         0.0511
     47 H16         7.9392    3.5355   -5.5477 H         1 <0>         0.0521
     48 H17         0.0577   -3.2859    2.4235 H         1 <0>         0.4070
@<TRIPOS>BOND
     1    1    2 1
     2    1   33 1
     3    1   34 1
     4    1   35 1
     5    2    6 1
     6    2    3 2
     7    3    4 1
     8    3   14 1
     9    4   11 1
    10    4    5 2
    11    5    6 1
    12    5    8 1
    13    6    7 1
    14    8    9 1
    15    8   48 1
    16    9   10 2
    17    9   13 1
    18   10   11 1
    19   11   12 2
    20   13   36 1
    21   13   37 1
    22   14   15 1
    23   15   20 ar
    24   15   16 ar
    25   16   17 ar
    26   16   38 1
    27   17   18 ar
    28   17   39 1
    29   18   19 ar
    30   18   21 1
    31   19   20 ar
    32   19   40 1
    33   20   41 1
    34   21   22 2
    35   21   23 am
    36   23   24 1
    37   23   42 1
    38   24   25 1
    39   24   30 1
    40   24   43 1
    41   25   26 1
    42   25   44 1
    43   25   45 1
    44   26   27 1
    45   26   46 1
    46   26   47 1
    47   27   28 2
    48   27   29 1
    49   30   31 2
    50   30   32 1
@<TRIPOS>MOLECULE
CHEMBL306149__3
   48    50     0     0     0
SMALL
USER_CHARGES

@<TRIPOS>ATOM
      1 C1         -0.0184    1.5028    0.0103 C.3       1 <0>        -0.0964
      2 C2          0.0021   -0.0041    0.0020 C.2       1 <0>         0.1025
      3 C3          0.0075   -0.7769   -1.1038 C.2       1 <0>        -0.1374
      4 C4          0.0294   -2.1672   -0.6429 C.2       1 <0>        -0.2800
      5 C5          0.0357   -2.1195    0.7587 C.2       1 <0>         0.3477
      6 N1          0.0241   -0.8055    1.1224 N.pl3     1 <0>        -0.5437
      7 H1          0.0285   -0.4820    2.0369 H         1 <0>         0.4212
      8 N2          0.0557   -3.2684    1.4513 N.2       1 <0>        -0.5922
      9 C6          0.0694   -4.4308    0.8402 C.2       1 <0>         0.6553
     10 N3          0.0646   -4.5355   -0.5195 N.am      1 <0>        -0.6618
     11 C7          0.0444   -3.4224   -1.2870 C.2       1 <0>         0.5762
     12 O1          0.0391   -3.5013   -2.5035 O.2       1 <0>        -0.5000
     13 N4          0.0897   -5.5772    1.5944 N.pl3     1 <0>        -0.8238
     14 S1         -0.0085   -0.2223   -2.7761 S.3       1 <0>         0.0447
     15 C8          1.6970   -0.0647   -3.1894 C.ar      1 <0>        -0.0859
     16 C9          2.6729   -0.3728   -2.2438 C.ar      1 <0>        -0.1304
     17 C10         3.9959   -0.2515   -2.5614 C.ar      1 <0>        -0.0500
     18 C11         4.3705    0.1819   -3.8372 C.ar      1 <0>        -0.1136
     19 C12         3.3888    0.4901   -4.7845 C.ar      1 <0>        -0.0673
     20 C13         2.0674    0.3623   -4.4629 C.ar      1 <0>        -0.1049
     21 C14         5.7979    0.3143   -4.1829 C.2       1 <0>         0.5454
     22 O2          6.6506    0.0465   -3.3583 O.2       1 <0>        -0.5551
     23 N5          6.1575    0.7321   -5.4128 N.am      1 <0>        -0.6751
     24 C15         7.5756    0.8636   -5.7562 C.3       1 <0>         0.0737
     25 C16         7.7479    0.7319   -7.2708 C.3       1 <0>        -0.0822
     26 C17         7.3549   -0.6807   -7.7078 C.3       1 <0>        -0.1776
     27 C18         7.5246   -0.8105   -9.1996 C.2       1 <0>         0.4914
     28 O3          7.9229    0.1389   -9.8527 O.co2     1 <0>        -0.6979
     29 O4          7.2635   -1.8648   -9.7534 O.co2     1 <0>        -0.7194
     30 C19         8.0778    2.2123   -5.3089 C.2       1 <0>         0.4987
     31 O5          9.2444    2.3509   -4.9830 O.co2     1 <0>        -0.7017
     32 O6          7.3174    3.1647   -5.2730 O.co2     1 <0>        -0.6983
     33 H2          1.0042    1.8801    0.0026 H         1 <0>         0.0870
     34 H3         -0.5455    1.8639   -0.8728 H         1 <0>         0.0994
     35 H4         -0.5286    1.8543    0.9071 H         1 <0>         0.0721
     36 H5          0.0936   -5.5207    2.5628 H         1 <0>         0.4262
     37 H6          0.1000   -6.4440    1.1591 H         1 <0>         0.4154
     38 H7          2.3831   -0.7075   -1.2588 H         1 <0>         0.1184
     39 H8          4.7519   -0.4898   -1.8279 H         1 <0>         0.1329
     40 H9          3.6752    0.8250   -5.7705 H         1 <0>         0.1350
     41 H10         1.3088    0.5965   -5.1951 H         1 <0>         0.1306
     42 H11         5.4773    0.9458   -6.0706 H         1 <0>         0.3918
     43 H12         8.1447    0.0799   -5.2562 H         1 <0>         0.0774
     44 H13         7.1097    1.4585   -7.7736 H         1 <0>         0.0606
     45 H14         8.7887    0.9178   -7.5355 H         1 <0>         0.0724
     46 H15         7.9930   -1.4074   -7.2049 H         1 <0>         0.0523
     47 H16         6.3140   -0.8666   -7.4430 H         1 <0>         0.0517
     48 H17         0.0755   -5.4109   -0.9372 H         1 <0>         0.4146
@<TRIPOS>BOND
     1    1    2 1
     2    1   33 1
     3    1   34 1
     4    1   35 1
     5    2    6 1
     6    2    3 2
     7    3    4 1
     8    3   14 1
     9    4   11 1
    10    4    5 2
    11    5    6 1
    12    5    8 1
    13    6    7 1
    14    8    9 2
    15    9   10 1
    16    9   13 1
    17   10   11 am
    18   10   48 1
    19   11   12 2
    20   13   36 1
    21   13   37 1
    22   14   15 1
    23   15   20 ar
    24   15   16 ar
    25   16   17 ar
    26   16   38 1
    27   17   18 ar
    28   17   39 1
    29   18   19 ar
    30   18   21 1
    31   19   20 ar
    32   19   40 1
    33   20   41 1
    34   21   22 2
    35   21   23 am
    36   23   24 1
    37   23   42 1
    38   24   25 1
    39   24   30 1
    40   24   43 1
    41   25   26 1
    42   25   44 1
    43   25   45 1
    44   26   27 1
    45   26   46 1
    46   26   47 1
    47   27   28 2
    48   27   29 1
    49   30   31 2
    50   30   32 1
@<TRIPOS>MOLECULE
CHEMBL306149__4
   47    49     0     0     0
SMALL
USER_CHARGES

@<TRIPOS>ATOM
      1 C1         -0.0184    1.5028    0.0103 C.3       1 <0>        -0.0828
      2 C2          0.0021   -0.0041    0.0020 C.2       1 <0>         0.0638
      3 C3          0.0075   -0.7745   -1.1035 C.2       1 <0>        -0.1384
      4 C4          0.0294   -2.1674   -0.6475 C.ar      1 <0>        -0.2940
      5 C5          0.0357   -2.1222    0.7595 C.ar      1 <0>         0.3541
      6 N1          0.0241   -0.8045    1.1244 N.pl3     1 <0>        -0.5717
      7 H1          0.0287   -0.4805    2.0386 H         1 <0>         0.4037
      8 N2          0.0553   -3.2705    1.4344 N.ar      1 <0>        -0.6749
      9 C6          0.0684   -4.4274    0.7943 C.ar      1 <0>         0.6088
     10 N3          0.0630   -4.5089   -0.5307 N.ar      1 <0>        -0.6712
     11 C7          0.0439   -3.4153   -1.2828 C.ar      1 <0>         0.5018
     12 O1          0.0384   -3.5044   -2.6342 O.3       1 <0>        -0.6588
     13 N4          0.0891   -5.5981    1.5339 N.pl3     1 <0>        -0.8414
     14 S1         -0.0095   -0.2156   -2.7745 S.3       1 <0>         0.0362
     15 C8          1.6958   -0.0561   -3.1880 C.ar      1 <0>        -0.0661
     16 C9          2.6723   -0.3661   -2.2435 C.ar      1 <0>        -0.1272
     17 C10         3.9950   -0.2429   -2.5612 C.ar      1 <0>        -0.0474
     18 C11         4.3689    0.1944   -3.8360 C.ar      1 <0>        -0.1315
     19 C12         3.3866    0.5044   -4.7821 C.ar      1 <0>        -0.0687
     20 C13         2.0654    0.3744   -4.4606 C.ar      1 <0>        -0.1156
     21 C14         5.7960    0.3288   -4.1817 C.2       1 <0>         0.5520
     22 O2          6.6492    0.0593   -3.3581 O.2       1 <0>        -0.5592
     23 N5          6.1549    0.7503   -5.4105 N.am      1 <0>        -0.6805
     24 C15         7.5728    0.8838   -5.7540 C.3       1 <0>         0.0747
     25 C16         7.7448    0.7564   -7.2690 C.3       1 <0>        -0.0802
     26 C17         7.3527   -0.6553   -7.7098 C.3       1 <0>        -0.1789
     27 C18         7.5221   -0.7808   -9.2020 C.2       1 <0>         0.4927
     28 O3          7.9195    0.1707   -9.8526 O.co2     1 <0>        -0.7014
     29 O4          7.2616   -1.8338   -9.7586 O.co2     1 <0>        -0.7196
     30 C19         8.0741    2.2316   -5.3032 C.2       1 <0>         0.4995
     31 O5          9.2408    2.3703   -4.9772 O.co2     1 <0>        -0.7068
     32 O6          7.3131    3.1833   -5.2644 O.co2     1 <0>        -0.6984
     33 H2          1.0042    1.8801    0.0026 H         1 <0>         0.0731
     34 H3         -0.5455    1.8639   -0.8728 H         1 <0>         0.0878
     35 H4         -0.5286    1.8543    0.9071 H         1 <0>         0.0593
     36 H5          0.0937   -5.5594    2.5031 H         1 <0>         0.3956
     37 H6          0.0990   -6.4567    1.0827 H         1 <0>         0.4027
     38 H7          2.3830   -0.7037   -1.2593 H         1 <0>         0.1221
     39 H8          4.7515   -0.4826   -1.8286 H         1 <0>         0.1285
     40 H9          3.6725    0.8422   -5.7672 H         1 <0>         0.1287
     41 H10         1.3065    0.6094   -5.1922 H         1 <0>         0.1262
     42 H11         5.4744    0.9652   -6.0675 H         1 <0>         0.3915
     43 H12         8.1427    0.0991   -5.2564 H         1 <0>         0.0758
     44 H13         7.1059    1.4839   -7.7696 H         1 <0>         0.0593
     45 H14         8.7854    0.9438   -7.5336 H         1 <0>         0.0694
     46 H15         7.9916   -1.3828   -7.2092 H         1 <0>         0.0525
     47 H16         6.3120   -0.8427   -7.4452 H         1 <0>         0.0547
@<TRIPOS>BOND
     1    1    2 1
     2    1   33 1
     3    1   34 1
     4    1   35 1
     5    2    6 1
     6    2    3 2
     7    3    4 1
     8    3   14 1
     9    4   11 ar
    10    4    5 ar
    11    5    6 1
    12    5    8 ar
    13    6    7 1
    14    8    9 ar
    15    9   10 ar
    16    9   13 1
    17   10   11 ar
    18   11   12 1
    19   13   36 1
    20   13   37 1
    21   14   15 1
    22   15   20 ar
    23   15   16 ar
    24   16   17 ar
    25   16   38 1
    26   17   18 ar
    27   17   39 1
    28   18   19 ar
    29   18   21 1
    30   19   20 ar
    31   19   40 1
    32   20   41 1
    33   21   22 2
    34   21   23 am
    35   23   24 1
    36   23   42 1
    37   24   25 1
    38   24   30 1
    39   24   43 1
    40   25   26 1
    41   25   44 1
    42   25   45 1
    43   26   27 1
    44   26   46 1
    45   26   47 1
    46   27   28 2
    47   27   29 1
    48   30   31 2
    49   30   32 1
@<TRIPOS>MOLECULE
CHEMBL306149__5
   48    50     0     0     0
SMALL
USER_CHARGES

@<TRIPOS>ATOM
      1 C1         -0.0184    1.5028    0.0103 C.3       1 <0>        -0.0945
      2 C2          0.0021   -0.0041    0.0020 C.2       1 <0>         0.1001
      3 C3          0.0076   -0.7800   -1.1029 C.2       1 <0>        -0.1412
      4 C4          0.0285   -2.1661   -0.6351 C.2       1 <0>        -0.2284
      5 C5          0.0342   -2.1138    0.7564 C.2       1 <0>         0.2827
      6 N1          0.0241   -0.8074    1.1199 N.pl3     1 <0>        -0.5484
      7 H1          0.0293   -0.4856    2.0349 H         1 <0>         0.4180
      8 N2          0.0531   -3.2988    1.4536 N.pl3     1 <0>        -0.6298
      9 C6          0.0659   -4.4872    0.7963 C.2       1 <0>         0.6747
     10 N3          0.0615   -4.5750   -0.5163 N.2       1 <0>        -0.6290
     11 C7          0.0433   -3.4750   -1.2874 C.2       1 <0>         0.5595
     12 O1          0.0388   -3.5660   -2.5050 O.2       1 <0>        -0.4775
     13 N4          0.0845   -5.6424    1.5307 N.pl3     1 <0>        -0.8223
     14 S1         -0.0081   -0.2317   -2.7773 S.3       1 <0>         0.0517
     15 C8          1.6976   -0.0760   -3.1908 C.ar      1 <0>        -0.0865
     16 C9          2.6733   -0.3807   -2.2439 C.ar      1 <0>        -0.1297
     17 C10         3.9963   -0.2609   -2.5617 C.ar      1 <0>        -0.0499
     18 C11         4.3713    0.1680   -3.8390 C.ar      1 <0>        -0.1128
     19 C12         3.3898    0.4732   -4.7874 C.ar      1 <0>        -0.0668
     20 C13         2.0683    0.3461   -4.4659 C.ar      1 <0>        -0.1037
     21 C14         5.7987    0.2988   -4.1848 C.2       1 <0>         0.5456
     22 O2          6.6512    0.0335   -3.3591 O.2       1 <0>        -0.5555
     23 N5          6.1587    0.7122   -5.4161 N.am      1 <0>        -0.6749
     24 C15         7.5769    0.8421   -5.7597 C.3       1 <0>         0.0737
     25 C16         7.7494    0.7051   -7.2738 C.3       1 <0>        -0.0821
     26 C17         7.3560   -0.7089   -7.7060 C.3       1 <0>        -0.1778
     27 C18         7.5260   -0.8439   -9.1973 C.2       1 <0>         0.4914
     28 O3          7.9247    0.1031   -9.8536 O.co2     1 <0>        -0.6983
     29 O4          7.2647   -1.9001   -9.7475 O.co2     1 <0>        -0.7189
     30 C19         8.0794    2.1922   -5.3170 C.2       1 <0>         0.4989
     31 O5          9.2460    2.3316   -4.9914 O.co2     1 <0>        -0.7019
     32 O6          7.3193    3.1449   -5.2845 O.co2     1 <0>        -0.6986
     33 H2          1.0042    1.8801    0.0026 H         1 <0>         0.0878
     34 H3         -0.5455    1.8639   -0.8728 H         1 <0>         0.1014
     35 H4         -0.5286    1.8543    0.9071 H         1 <0>         0.0713
     36 H5          0.0884   -5.6011    2.4998 H         1 <0>         0.4090
     37 H6          0.0939   -6.5023    1.0818 H         1 <0>         0.4329
     38 H7          2.3831   -0.7115   -1.2576 H         1 <0>         0.1167
     39 H8          4.7522   -0.4969   -1.8272 H         1 <0>         0.1327
     40 H9          3.6765    0.8050   -5.7744 H         1 <0>         0.1354
     41 H10         1.3100    0.5770   -5.1994 H         1 <0>         0.1314
     42 H11         5.4787    0.9238   -6.0747 H         1 <0>         0.3920
     43 H12         8.1456    0.0600   -5.2570 H         1 <0>         0.0775
     44 H13         7.1115    1.4302   -7.7792 H         1 <0>         0.0605
     45 H14         8.7904    0.8897   -7.5390 H         1 <0>         0.0723
     46 H15         7.9939   -1.4340   -7.2005 H         1 <0>         0.0525
     47 H16         6.3151   -0.8935   -7.4407 H         1 <0>         0.0520
     48 H17         0.0577   -3.2859    2.4235 H         1 <0>         0.4071
@<TRIPOS>BOND
     1    1    2 1
     2    1   33 1
     3    1   34 1
     4    1   35 1
     5    2    6 1
     6    2    3 2
     7    3    4 1
     8    3   14 1
     9    4   11 1
    10    4    5 2
    11    5    6 1
    12    5    8 1
    13    6    7 1
    14    8    9 1
    15    8   48 1
    16    9   10 2
    17    9   13 1
    18   10   11 1
    19   11   12 2
    20   13   36 1
    21   13   37 1
    22   14   15 1
    23   15   20 ar
    24   15   16 ar
    25   16   17 ar
    26   16   38 1
    27   17   18 ar
    28   17   39 1
    29   18   19 ar
    30   18   21 1
    31   19   20 ar
    32   19   40 1
    33   20   41 1
    34   21   22 2
    35   21   23 am
    36   23   24 1
    37   23   42 1
    38   24   25 1
    39   24   30 1
    40   24   43 1
    41   25   26 1
    42   25   44 1
    43   25   45 1
    44   26   27 1
    45   26   46 1
    46   26   47 1
    47   27   28 2
    48   27   29 1
    49   30   31 2
    50   30   32 1
@<TRIPOS>MOLECULE
CHEMBL341323
   63    66     0     0     0
SMALL
USER_CHARGES

@<TRIPOS>ATOM
      1 C1         -3.0009   -0.8810   -1.3772 C.3       1 <0>        -0.1243
      2 C2         -2.3070    0.3696   -1.8521 C.ar      1 <0>        -0.0303
      3 C3         -1.6097    0.3513   -3.0394 C.ar      1 <0>        -0.1112
      4 C4         -0.9665    1.5088   -3.4814 C.ar      1 <0>         0.1559
      5 C5         -1.0419    2.6838   -2.7006 C.ar      1 <0>        -0.2015
      6 C6         -1.7525    2.6812   -1.5025 C.ar      1 <0>        -0.0177
      7 C7         -2.3834    1.5276   -1.0898 C.ar      1 <0>        -0.1287
      8 C8         -3.1585    1.5215    0.2025 C.3       1 <0>         0.1666
      9 N1         -3.0305    2.8269    0.8549 N.pl3     1 <0>        -0.6169
     10 C9         -3.9908    3.8923    0.5564 C.3       1 <0>         0.2283
     11 C10        -5.1223    3.8098    1.4943 C.1       1 <0>        -0.2113
     12 C11        -6.0248    3.7441    2.2423 C.1       1 <0>        -0.1817
     13 C12        -1.9976    3.0548    1.7575 C.ar      1 <0>         0.2512
     14 C13        -1.0184    2.0833    1.9523 C.ar      1 <0>        -0.2038
     15 C14        -0.0009    2.2994    2.8367 C.ar      1 <0>        -0.0094
     16 C15         0.0632    3.4995    3.5519 C.ar      1 <0>        -0.2025
     17 C16        -0.9193    4.4788    3.3584 C.ar      1 <0>         0.2029
     18 C17        -1.9417    4.2544    2.4590 C.ar      1 <0>        -0.2404
     19 F1         -0.8636    5.6405    4.0459 F         1 <0>        -0.1136
     20 C18         1.1611    3.7328    4.5069 C.2       1 <0>         0.5553
     21 O1          1.2151    4.7769    5.1280 O.2       1 <0>        -0.5392
     22 N2          2.1052    2.7889    4.6920 N.am      1 <0>        -0.6866
     23 C19         3.1966    3.0208    5.6414 C.3       1 <0>         0.0861
     24 H1          2.8247    3.5967    6.4889 H         1 <0>         0.0858
     25 C20         3.7369    1.6774    6.1354 C.3       1 <0>        -0.0921
     26 C21         2.6515    0.9541    6.9352 C.3       1 <0>        -0.0869
     27 S1          3.2922   -0.6387    7.5209 S.3       1 <0>        -0.0568
     28 C22         1.9429   -1.3395    8.4114 C.2       1 <0>         0.0566
     29 N3          1.9251   -2.5174    9.0352 N.2       1 <0>        -0.3640
     30 N4          0.7572   -2.6592    9.5625 N.2       1 <0>        -0.1973
     31 N5          0.0430   -1.6221    9.2964 N.2       1 <0>        -0.1944
     32 N6          0.7413   -0.7931    8.5983 N.2       1 <0>        -0.3769
     33 C23         4.3011    3.7865    4.9597 C.2       1 <0>         0.4976
     34 O2          5.0091    4.5402    5.6057 O.co2     1 <0>        -0.6952
     35 O3          4.4868    3.6523    3.7622 O.co2     1 <0>        -0.6920
     36 C24        -0.3530    3.8856   -3.1940 C.2       1 <0>         0.5487
     37 N7          0.3105    3.7850   -4.3693 N.am      1 <0>        -0.6547
     38 C25         0.3296    2.6121   -5.0548 C.2       1 <0>         0.3931
     39 N8         -0.2684    1.5353   -4.6443 N.2       1 <0>        -0.5225
     40 C26         1.0839    2.5582   -6.3583 C.3       1 <0>        -0.1099
     41 O4         -0.3789    4.9304   -2.5699 O.2       1 <0>        -0.5024
     42 H2         -4.0506   -0.8471   -1.6690 H         1 <0>         0.0778
     43 H3         -2.5266   -1.7530   -1.8274 H         1 <0>         0.0735
     44 H4         -2.9275   -0.9474   -0.2917 H         1 <0>         0.0766
     45 H5         -1.5604   -0.5544   -3.6257 H         1 <0>         0.1390
     46 H6         -1.8119    3.5778   -0.9034 H         1 <0>         0.1423
     47 H7         -4.2095    1.3205   -0.0051 H         1 <0>         0.0926
     48 H8         -2.7633    0.7467    0.8595 H         1 <0>         0.0993
     49 H9         -3.5025    4.8612    0.6605 H         1 <0>         0.1034
     50 H10        -4.3557    3.7770   -0.4642 H         1 <0>         0.0991
     51 H11        -6.8320    3.6853    2.9112 H         1 <0>         0.2161
     52 H12        -1.0645    1.1553    1.4018 H         1 <0>         0.1307
     53 H13         0.7552    1.5425    2.9843 H         1 <0>         0.1372
     54 H14        -2.6996    5.0078    2.3029 H         1 <0>         0.1362
     55 H15         2.0620    1.9561    4.1966 H         1 <0>         0.3905
     56 H16         4.0268    1.0660    5.2808 H         1 <0>         0.0725
     57 H17         4.6053    1.8469    6.7720 H         1 <0>         0.0849
     58 H18         2.3617    1.5655    7.7898 H         1 <0>         0.0817
     59 H19         1.7832    0.7845    6.2986 H         1 <0>         0.0800
     60 H20         2.1163    2.2645   -6.1687 H         1 <0>         0.0986
     61 H21         0.6146    1.8299   -7.0198 H         1 <0>         0.1020
     62 H22         1.0664    3.5410   -6.8292 H         1 <0>         0.0846
     63 H23         0.7766    4.5574   -4.7257 H         1 <0>         0.4175
@<TRIPOS>BOND
     1    1   42 1
     2    1   43 1
     3    1   44 1
     4    1    2 1
     5    2    7 ar
     6    2    3 ar
     7    3   45 1
     8    3    4 ar
     9    4    5 ar
    10    4   39 1
    11    5   36 1
    12    5    6 ar
    13    6   46 1
    14    6    7 ar
    15    7    8 1
    16    8    9 1
    17    8   47 1
    18    8   48 1
    19    9   10 1
    20    9   13 1
    21   10   11 1
    22   10   49 1
    23   10   50 1
    24   11   12 3
    25   12   51 1
    26   13   18 ar
    27   13   14 ar
    28   14   15 ar
    29   14   52 1
    30   15   16 ar
    31   15   53 1
    32   16   17 ar
    33   16   20 1
    34   17   18 ar
    35   17   19 1
    36   18   54 1
    37   20   21 2
    38   20   22 am
    39   22   23 1
    40   22   55 1
    41   23   24 1
    42   23   25 1
    43   23   33 1
    44   25   26 1
    45   25   56 1
    46   25   57 1
    47   26   27 1
    48   26   58 1
    49   26   59 1
    50   27   28 1
    51   28   29 2
    52   28   32 1
    53   29   30 1
    54   30   31 2
    55   31   32 1
    56   33   34 2
    57   33   35 1
    58   36   41 2
    59   36   37 am
    60   37   38 1
    61   37   63 1
    62   38   39 2
    63   38   40 1
    64   40   60 1
    65   40   61 1
    66   40   62 1
@<TRIPOS>MOLECULE
CHEMBL120677
   34    35     0     0     0
SMALL
USER_CHARGES

@<TRIPOS>ATOM
      1 C1         -0.0165    1.3661    0.0096 C.2       1 <0>         0.1645
      2 C2          1.1482    2.0503    0.0021 C.2       1 <0>        -0.0849
      3 C3          2.3698    1.3312   -0.0134 C.2       1 <0>         0.5353
      4 O1          3.4328    1.9255   -0.0200 O.2       1 <0>        -0.5172
      5 N1          2.3439   -0.0169   -0.0204 N.am      1 <0>        -0.6010
      6 H1          3.1757   -0.5157   -0.0310 H         1 <0>         0.4410
      7 C4          1.1690   -0.6734   -0.0123 C.2       1 <0>         0.4977
      8 S1          1.1594   -2.3854   -0.0208 S.2       1 <0>        -0.5147
      9 N2          0.0021   -0.0041    0.0020 N.pl3     1 <0>        -0.4519
     10 C5         -1.2606   -0.7470    0.0101 C.3       1 <0>         0.2815
     11 C6         -1.3604   -1.6238   -1.2566 C.3       1 <0>        -0.1589
     12 C7         -2.8597   -1.4841   -1.6368 C.3       1 <0>         0.1397
     13 H2         -3.0063   -1.6098   -2.7096 H         1 <0>         0.0766
     14 C8         -3.1384   -0.0231   -1.2025 C.3       1 <0>         0.0663
     15 H3         -2.8151    0.6705   -1.9787 H         1 <0>         0.0765
     16 O2         -2.3627    0.1678   -0.0087 O.3       1 <0>        -0.3428
     17 C9         -4.6274    0.1683   -0.9071 C.3       1 <0>         0.1396
     18 O3         -4.8833    1.5449   -0.6219 O.3       1 <0>        -0.7702
     19 P1         -6.3486    2.1089   -0.2657 P.3       1 <0>         2.1431
     20 O4         -7.3504    1.7163   -1.4044 O.2       1 <0>        -1.1917
     21 O5         -6.8309    1.4902    1.0904 O.3       1 <0>        -1.1941
     22 O6         -6.2905    3.6692   -0.1364 O.3       1 <0>        -1.1848
     23 O7         -3.6661   -2.4044   -0.8987 O.3       1 <0>        -0.7280
     24 P2         -4.5992   -3.5122   -1.6018 P.3       1 <0>         2.1221
     25 O8         -5.5691   -2.8122   -2.6135 O.2       1 <0>        -1.1753
     26 O9         -3.7006   -4.5423   -2.3673 O.3       1 <0>        -1.1914
     27 O10        -5.4358   -4.2602   -0.5086 O.3       1 <0>        -1.1667
     28 F1          1.1489    3.4013    0.0089 F         1 <0>        -0.1025
     29 H4         -0.9573    1.8962    0.0259 H         1 <0>         0.2132
     30 H5         -1.3151   -1.3735    0.9004 H         1 <0>         0.1447
     31 H6         -0.7214   -1.2345   -2.0492 H         1 <0>         0.0724
     32 H7         -1.1124   -2.6609   -1.0311 H         1 <0>         0.1275
     33 H8         -5.2122   -0.1379   -1.7745 H         1 <0>         0.0765
     34 H9         -4.9081   -0.4393   -0.0467 H         1 <0>         0.0578
@<TRIPOS>BOND
     1    1    9 1
     2    1    2 2
     3    1   29 1
     4    2    3 1
     5    2   28 1
     6    3    4 2
     7    3    5 am
     8    5    6 1
     9    5    7 1
    10    7    8 2
    11    7    9 1
    12    9   10 1
    13   10   16 1
    14   10   11 1
    15   10   30 1
    16   11   12 1
    17   11   31 1
    18   11   32 1
    19   12   13 1
    20   12   14 1
    21   12   23 1
    22   14   15 1
    23   14   16 1
    24   14   17 1
    25   17   18 1
    26   17   33 1
    27   17   34 1
    28   18   19 1
    29   19   20 2
    30   19   21 1
    31   19   22 1
    32   23   24 1
    33   24   25 2
    34   24   26 1
    35   24   27 1
@<TRIPOS>MOLECULE
CHEMBL120677__1
   35    36     0     0     0
SMALL
USER_CHARGES

@<TRIPOS>ATOM
      1 C1         -0.0165    1.3661    0.0096 C.2       1 <0>         0.1533
      2 C2          1.1482    2.0503    0.0021 C.2       1 <0>        -0.0695
      3 C3          2.3698    1.3312   -0.0134 C.2       1 <0>         0.5325
      4 O1          3.4328    1.9255   -0.0200 O.2       1 <0>        -0.5036
      5 N1          2.3439   -0.0169   -0.0204 N.am      1 <0>        -0.5995
      6 H1          3.1757   -0.5157   -0.0310 H         1 <0>         0.4440
      7 C4          1.1690   -0.6734   -0.0123 C.2       1 <0>         0.5052
      8 S1          1.1594   -2.3854   -0.0208 S.2       1 <0>        -0.5258
      9 N2          0.0021   -0.0041    0.0020 N.pl3     1 <0>        -0.4580
     10 C5         -1.2606   -0.7470    0.0101 C.3       1 <0>         0.2848
     11 C6         -1.3604   -1.6238   -1.2566 C.3       1 <0>        -0.1605
     12 C7         -2.8597   -1.4841   -1.6368 C.3       1 <0>         0.1438
     13 H2         -3.0063   -1.6098   -2.7096 H         1 <0>         0.0938
     14 C8         -3.1384   -0.0231   -1.2025 C.3       1 <0>         0.0652
     15 H3         -2.8151    0.6705   -1.9787 H         1 <0>         0.0913
     16 O2         -2.3627    0.1678   -0.0087 O.3       1 <0>        -0.3390
     17 C9         -4.6274    0.1683   -0.9071 C.3       1 <0>         0.1368
     18 O3         -4.8833    1.5449   -0.6219 O.3       1 <0>        -0.7618
     19 P1         -6.3486    2.1089   -0.2657 P.3       1 <0>         2.1345
     20 O4         -7.3504    1.7162   -1.4044 O.2       1 <0>        -1.1880
     21 O5         -6.8309    1.4902    1.0904 O.3       1 <0>        -1.1908
     22 O6         -6.2905    3.6692   -0.1364 O.3       1 <0>        -1.1755
     23 O7         -3.6661   -2.4044   -0.8987 O.3       1 <0>        -0.7341
     24 P2         -4.5992   -3.5122   -1.6018 P.3       1 <0>         2.2015
     25 O8         -5.5557   -2.8218   -2.5995 O.2       1 <0>        -1.0944
     26 O9         -3.7130   -4.5280   -2.3567 O.3       1 <0>        -1.1078
     27 O10        -5.4589   -4.2810   -0.4784 O.3       1 <0>        -0.8916
     28 F1          1.1489    3.4013    0.0089 F         1 <0>        -0.0975
     29 H4         -0.9573    1.8962    0.0259 H         1 <0>         0.2141
     30 H5         -1.3151   -1.3735    0.9004 H         1 <0>         0.1444
     31 H6         -0.7214   -1.2345   -2.0492 H         1 <0>         0.0873
     32 H7         -1.1124   -2.6609   -1.0311 H         1 <0>         0.1314
     33 H8         -5.2122   -0.1379   -1.7745 H         1 <0>         0.0736
     34 H9         -4.9081   -0.4393   -0.0467 H         1 <0>         0.0511
     35 H10        -6.0452   -4.9643   -0.8310 H         1 <0>         0.4089
@<TRIPOS>BOND
     1    1    9 1
     2    1    2 2
     3    1   29 1
     4    2    3 1
     5    2   28 1
     6    3    4 2
     7    3    5 am
     8    5    6 1
     9    5    7 1
    10    7    8 2
    11    7    9 1
    12    9   10 1
    13   10   16 1
    14   10   11 1
    15   10   30 1
    16   11   12 1
    17   11   31 1
    18   11   32 1
    19   12   13 1
    20   12   14 1
    21   12   23 1
    22   14   15 1
    23   14   16 1
    24   14   17 1
    25   17   18 1
    26   17   33 1
    27   17   34 1
    28   18   19 1
    29   19   20 2
    30   19   21 1
    31   19   22 1
    32   23   24 1
    33   24   25 2
    34   24   26 1
    35   24   27 1
    36   27   35 1
@<TRIPOS>MOLECULE
CHEMBL120677__2
   35    36     0     0     0
SMALL
USER_CHARGES

@<TRIPOS>ATOM
      1 C1         -0.0165    1.3661    0.0096 C.2       1 <0>         0.1577
      2 C2          1.1482    2.0503    0.0021 C.2       1 <0>        -0.0794
      3 C3          2.3698    1.3312   -0.0134 C.2       1 <0>         0.5335
      4 O1          3.4328    1.9255   -0.0200 O.2       1 <0>        -0.5086
      5 N1          2.3439   -0.0169   -0.0204 N.am      1 <0>        -0.6005
      6 H1          3.1757   -0.5157   -0.0310 H         1 <0>         0.4437
      7 C4          1.1690   -0.6734   -0.0123 C.2       1 <0>         0.4958
      8 S1          1.1594   -2.3854   -0.0208 S.2       1 <0>        -0.4994
      9 N2          0.0021   -0.0041    0.0020 N.pl3     1 <0>        -0.4583
     10 C5         -1.2606   -0.7470    0.0101 C.3       1 <0>         0.2884
     11 C6         -1.3604   -1.6238   -1.2566 C.3       1 <0>        -0.1608
     12 C7         -2.8597   -1.4841   -1.6368 C.3       1 <0>         0.1388
     13 H2         -3.0063   -1.6098   -2.7096 H         1 <0>         0.0813
     14 C8         -3.1384   -0.0231   -1.2025 C.3       1 <0>         0.0658
     15 H3         -2.8151    0.6705   -1.9787 H         1 <0>         0.0818
     16 O2         -2.3627    0.1678   -0.0087 O.3       1 <0>        -0.3506
     17 C9         -4.6274    0.1683   -0.9071 C.3       1 <0>         0.1421
     18 O3         -4.8833    1.5449   -0.6219 O.3       1 <0>        -0.7676
     19 P1         -6.3486    2.1089   -0.2657 P.3       1 <0>         2.2025
     20 O4         -7.3365    1.7217   -1.3887 O.2       1 <0>        -1.1036
     21 O5         -6.8242    1.4987    1.0717 O.3       1 <0>        -1.1056
     22 O6         -6.2888    3.7123   -0.1328 O.3       1 <0>        -0.8992
     23 O7         -3.6661   -2.4044   -0.8987 O.3       1 <0>        -0.7288
     24 P2         -4.5992   -3.5122   -1.6018 P.3       1 <0>         2.1145
     25 O8         -5.5691   -2.8122   -2.6135 O.2       1 <0>        -1.1749
     26 O9         -3.7006   -4.5422   -2.3673 O.3       1 <0>        -1.1846
     27 O10        -5.4358   -4.2603   -0.5086 O.3       1 <0>        -1.1615
     28 F1          1.1489    3.4013    0.0089 F         1 <0>        -0.1027
     29 H4         -0.9573    1.8962    0.0259 H         1 <0>         0.2079
     30 H5         -1.3151   -1.3735    0.9004 H         1 <0>         0.1471
     31 H6         -0.7214   -1.2345   -2.0492 H         1 <0>         0.0763
     32 H7         -1.1124   -2.6609   -1.0311 H         1 <0>         0.1319
     33 H8         -5.2122   -0.1379   -1.7745 H         1 <0>         0.0938
     34 H9         -4.9081   -0.4393   -0.0467 H         1 <0>         0.0769
     35 H10        -7.1386    4.1212    0.0812 H         1 <0>         0.4063
@<TRIPOS>BOND
     1    1    9 1
     2    1    2 2
     3    1   29 1
     4    2    3 1
     5    2   28 1
     6    3    4 2
     7    3    5 am
     8    5    6 1
     9    5    7 1
    10    7    8 2
    11    7    9 1
    12    9   10 1
    13   10   16 1
    14   10   11 1
    15   10   30 1
    16   11   12 1
    17   11   31 1
    18   11   32 1
    19   12   13 1
    20   12   14 1
    21   12   23 1
    22   14   15 1
    23   14   16 1
    24   14   17 1
    25   17   18 1
    26   17   33 1
    27   17   34 1
    28   18   19 1
    29   19   20 2
    30   19   21 1
    31   19   22 1
    32   22   35 1
    33   23   24 1
    34   24   25 2
    35   24   26 1
    36   24   27 1
@<TRIPOS>MOLECULE
CHEMBL120677__3
   34    35     0     0     0
SMALL
USER_CHARGES

@<TRIPOS>ATOM
      1 C1         -0.0165    1.3661    0.0096 C.2       1 <0>         0.1671
      2 C2          1.1482    2.0503    0.0021 C.2       1 <0>        -0.1085
      3 C3          2.3698    1.3312   -0.0134 C.2       1 <0>         0.5387
      4 O1          3.4328    1.9255   -0.0200 O.2       1 <0>        -0.5323
      5 N1          2.3439   -0.0169   -0.0204 N.am      1 <0>        -0.6075
      6 H1          3.1757   -0.5157   -0.0310 H         1 <0>         0.4396
      7 C4          1.1690   -0.6734   -0.0123 C.2       1 <0>         0.4043
      8 S1          1.1594   -2.3854   -0.0208 S.2       1 <0>        -0.2808
      9 N2          0.0021   -0.0041    0.0020 N.pl3     1 <0>        -0.4553
     10 C5         -1.2606   -0.7470    0.0101 C.3       1 <0>         0.2789
     11 C6         -1.3897   -1.6020   -1.2700 C.3       1 <0>        -0.1710
     12 C7         -2.0726   -2.9009   -0.7867 C.3       1 <0>         0.1543
     13 H2         -3.0328   -3.0356   -1.2847 H         1 <0>         0.0588
     14 C8         -2.2754   -2.6770    0.7283 C.3       1 <0>         0.0779
     15 H3         -3.2747   -2.2881    0.9240 H         1 <0>         0.0686
     16 O2         -1.2756   -1.7011    1.0942 O.3       1 <0>        -0.3314
     17 C9         -2.0538   -3.9829    1.4940 C.3       1 <0>         0.1489
     18 O3         -2.3588   -3.7826    2.8757 O.3       1 <0>        -0.7730
     19 P1         -2.2366   -4.9490    3.9787 P.3       1 <0>         2.1473
     20 O4         -3.0887   -6.1844    3.5289 O.2       1 <0>        -1.1931
     21 O5         -0.7360   -5.3748    4.1244 O.3       1 <0>        -1.1966
     22 O6         -2.7663   -4.4229    5.3560 O.3       1 <0>        -1.1891
     23 O7         -1.2263   -4.0284   -1.0201 O.3       1 <0>        -0.7106
     24 P2         -1.6681   -5.2837   -1.9262 P.3       1 <0>         2.1267
     25 O8         -3.0175   -5.8684   -1.3862 O.2       1 <0>        -1.1820
     26 O9         -1.8580   -4.8161   -3.4094 O.3       1 <0>        -1.2001
     27 O10        -0.5587   -6.3882   -1.8649 O.3       1 <0>        -1.1696
     28 F1          1.1489    3.4013    0.0089 F         1 <0>        -0.1166
     29 H4         -0.9573    1.8962    0.0259 H         1 <0>         0.1869
     30 H5         -2.1031   -0.0609    0.0967 H         1 <0>         0.1092
     31 H6         -2.0121   -1.0946   -2.0070 H         1 <0>         0.0720
     32 H7         -0.4054   -1.8195   -1.6849 H         1 <0>         0.1054
     33 H8         -2.7037   -4.7575    1.0871 H         1 <0>         0.0737
     34 H9         -1.0133   -4.2914    1.3927 H         1 <0>         0.0590
@<TRIPOS>BOND
     1    1    9 1
     2    1    2 2
     3    1   29 1
     4    2    3 1
     5    2   28 1
     6    3    4 2
     7    3    5 am
     8    5    6 1
     9    5    7 1
    10    7    8 2
    11    7    9 1
    12    9   10 1
    13   10   16 1
    14   10   11 1
    15   10   30 1
    16   11   12 1
    17   11   31 1
    18   11   32 1
    19   12   13 1
    20   12   14 1
    21   12   23 1
    22   14   15 1
    23   14   16 1
    24   14   17 1
    25   17   18 1
    26   17   33 1
    27   17   34 1
    28   18   19 1
    29   19   20 2
    30   19   21 1
    31   19   22 1
    32   23   24 1
    33   24   25 2
    34   24   26 1
    35   24   27 1
@<TRIPOS>MOLECULE
CHEMBL120677__4
   35    36     0     0     0
SMALL
USER_CHARGES

@<TRIPOS>ATOM
      1 C1         -0.0165    1.3661    0.0096 C.2       1 <0>         0.1571
      2 C2          1.1482    2.0503    0.0021 C.2       1 <0>        -0.0872
      3 C3          2.3698    1.3312   -0.0134 C.2       1 <0>         0.5357
      4 O1          3.4328    1.9255   -0.0200 O.2       1 <0>        -0.5153
      5 N1          2.3439   -0.0169   -0.0204 N.am      1 <0>        -0.6062
      6 H1          3.1757   -0.5157   -0.0310 H         1 <0>         0.4425
      7 C4          1.1690   -0.6734   -0.0123 C.2       1 <0>         0.4364
      8 S1          1.1594   -2.3854   -0.0208 S.2       1 <0>        -0.3416
      9 N2          0.0021   -0.0041    0.0020 N.pl3     1 <0>        -0.4600
     10 C5         -1.2606   -0.7470    0.0101 C.3       1 <0>         0.2811
     11 C6         -1.3897   -1.6020   -1.2700 C.3       1 <0>        -0.1734
     12 C7         -2.0726   -2.9009   -0.7867 C.3       1 <0>         0.1619
     13 H2         -3.0328   -3.0356   -1.2847 H         1 <0>         0.0764
     14 C8         -2.2754   -2.6770    0.7283 C.3       1 <0>         0.0757
     15 H3         -3.2747   -2.2881    0.9240 H         1 <0>         0.0829
     16 O2         -1.2756   -1.7011    1.0942 O.3       1 <0>        -0.3253
     17 C9         -2.0538   -3.9829    1.4940 C.3       1 <0>         0.1459
     18 O3         -2.3588   -3.7826    2.8757 O.3       1 <0>        -0.7643
     19 P1         -2.2366   -4.9490    3.9787 P.3       1 <0>         2.1392
     20 O4         -3.0886   -6.1844    3.5289 O.2       1 <0>        -1.1907
     21 O5         -0.7360   -5.3748    4.1244 O.3       1 <0>        -1.1926
     22 O6         -2.7663   -4.4229    5.3560 O.3       1 <0>        -1.1800
     23 O7         -1.2263   -4.0284   -1.0201 O.3       1 <0>        -0.7161
     24 P2         -1.6681   -5.2837   -1.9262 P.3       1 <0>         2.2024
     25 O8         -2.9988   -5.8603   -1.3937 O.2       1 <0>        -1.1011
     26 O9         -1.8554   -4.8226   -3.3889 O.3       1 <0>        -1.1167
     27 O10        -0.5280   -6.4187   -1.8632 O.3       1 <0>        -0.8898
     28 F1          1.1489    3.4013    0.0089 F         1 <0>        -0.1092
     29 H4         -0.9573    1.8962    0.0259 H         1 <0>         0.1920
     30 H5         -2.1031   -0.0609    0.0967 H         1 <0>         0.1168
     31 H6         -2.0121   -1.0946   -2.0070 H         1 <0>         0.0843
     32 H7         -0.4054   -1.8195   -1.6849 H         1 <0>         0.1107
     33 H8         -2.7037   -4.7575    1.0871 H         1 <0>         0.0670
     34 H9         -1.0133   -4.2914    1.3927 H         1 <0>         0.0555
     35 H10        -0.7277   -7.2064   -2.3874 H         1 <0>         0.4057
@<TRIPOS>BOND
     1    1    9 1
     2    1    2 2
     3    1   29 1
     4    2    3 1
     5    2   28 1
     6    3    4 2
     7    3    5 am
     8    5    6 1
     9    5    7 1
    10    7    8 2
    11    7    9 1
    12    9   10 1
    13   10   16 1
    14   10   11 1
    15   10   30 1
    16   11   12 1
    17   11   31 1
    18   11   32 1
    19   12   13 1
    20   12   14 1
    21   12   23 1
    22   14   15 1
    23   14   16 1
    24   14   17 1
    25   17   18 1
    26   17   33 1
    27   17   34 1
    28   18   19 1
    29   19   20 2
    30   19   21 1
    31   19   22 1
    32   23   24 1
    33   24   25 2
    34   24   26 1
    35   24   27 1
    36   27   35 1
@<TRIPOS>MOLECULE
CHEMBL120677__5
   35    36     0     0     0
SMALL
USER_CHARGES

@<TRIPOS>ATOM
      1 C1         -0.0165    1.3661    0.0096 C.2       1 <0>         0.1584
      2 C2          1.1482    2.0503    0.0021 C.2       1 <0>        -0.0943
      3 C3          2.3698    1.3312   -0.0134 C.2       1 <0>         0.5359
      4 O1          3.4328    1.9255   -0.0200 O.2       1 <0>        -0.5207
      5 N1          2.3439   -0.0169   -0.0204 N.am      1 <0>        -0.6071
      6 H1          3.1757   -0.5157   -0.0310 H         1 <0>         0.4418
      7 C4          1.1690   -0.6734   -0.0123 C.2       1 <0>         0.4178
      8 S1          1.1594   -2.3854   -0.0208 S.2       1 <0>        -0.3061
      9 N2          0.0021   -0.0041    0.0020 N.pl3     1 <0>        -0.4598
     10 C5         -1.2606   -0.7470    0.0101 C.3       1 <0>         0.2857
     11 C6         -1.3897   -1.6020   -1.2700 C.3       1 <0>        -0.1733
     12 C7         -2.0726   -2.9009   -0.7867 C.3       1 <0>         0.1539
     13 H2         -3.0328   -3.0356   -1.2847 H         1 <0>         0.0640
     14 C8         -2.2754   -2.6770    0.7283 C.3       1 <0>         0.0775
     15 H3         -3.2747   -2.2881    0.9240 H         1 <0>         0.0739
     16 O2         -1.2756   -1.7011    1.0942 O.3       1 <0>        -0.3380
     17 C9         -2.0538   -3.9829    1.4940 C.3       1 <0>         0.1505
     18 O3         -2.3588   -3.7826    2.8757 O.3       1 <0>        -0.7691
     19 P1         -2.2366   -4.9490    3.9787 P.3       1 <0>         2.2023
     20 O4         -3.0769   -6.1673    3.5352 O.2       1 <0>        -1.1040
     21 O5         -0.7567   -5.3689    4.1224 O.3       1 <0>        -1.1072
     22 O6         -2.7809   -4.4083    5.3941 O.3       1 <0>        -0.8999
     23 O7         -1.2263   -4.0284   -1.0201 O.3       1 <0>        -0.7119
     24 P2         -1.6681   -5.2837   -1.9262 P.3       1 <0>         2.1196
     25 O8         -3.0175   -5.8684   -1.3862 O.2       1 <0>        -1.1815
     26 O9         -1.8580   -4.8161   -3.4094 O.3       1 <0>        -1.1935
     27 O10        -0.5587   -6.3882   -1.8649 O.3       1 <0>        -1.1648
     28 F1          1.1489    3.4013    0.0089 F         1 <0>        -0.1120
     29 H4         -0.9573    1.8962    0.0259 H         1 <0>         0.1889
     30 H5         -2.1031   -0.0609    0.0967 H         1 <0>         0.1125
     31 H6         -2.0121   -1.0946   -2.0070 H         1 <0>         0.0774
     32 H7         -0.4054   -1.8195   -1.6849 H         1 <0>         0.1091
     33 H8         -2.7037   -4.7575    1.0871 H         1 <0>         0.0907
     34 H9         -1.0133   -4.2914    1.3927 H         1 <0>         0.0784
     35 H10        -2.7372   -5.0599    6.1072 H         1 <0>         0.4047
@<TRIPOS>BOND
     1    1    9 1
     2    1    2 2
     3    1   29 1
     4    2    3 1
     5    2   28 1
     6    3    4 2
     7    3    5 am
     8    5    6 1
     9    5    7 1
    10    7    8 2
    11    7    9 1
    12    9   10 1
    13   10   16 1
    14   10   11 1
    15   10   30 1
    16   11   12 1
    17   11   31 1
    18   11   32 1
    19   12   13 1
    20   12   14 1
    21   12   23 1
    22   14   15 1
    23   14   16 1
    24   14   17 1
    25   17   18 1
    26   17   33 1
    27   17   34 1
    28   18   19 1
    29   19   20 2
    30   19   21 1
    31   19   22 1
    32   22   35 1
    33   23   24 1
    34   24   25 2
    35   24   26 1
    36   24   27 1
@<TRIPOS>MOLECULE
CHEMBL410300
   54    56     0     0     0
SMALL
USER_CHARGES

@<TRIPOS>ATOM
      1 C1         -0.0187    1.5258    0.0104 C.3       1 <0>        -0.1753
      2 C2          0.0021   -0.0041    0.0020 C.3       1 <0>         0.1204
      3 N1          0.6878   -0.4765   -1.2033 N.pl3     1 <0>        -0.5622
      4 C3          2.1353   -0.7012   -1.1821 C.3       1 <0>         0.1743
      5 C4          2.4170   -2.1231   -0.7698 C.ar      1 <0>        -0.1307
      6 C5          2.5762   -2.4312    0.5751 C.ar      1 <0>        -0.0602
      7 C6          2.8341   -3.7223    0.9771 C.ar      1 <0>        -0.1183
      8 C7          2.9373   -4.7363    0.0225 C.ar      1 <0>         0.1570
      9 C8          2.7748   -4.4193   -1.3442 C.ar      1 <0>        -0.1998
     10 C9          2.5087   -3.1070   -1.7296 C.ar      1 <0>        -0.0075
     11 C10         2.8899   -5.5097   -2.3241 C.2       1 <0>         0.5446
     12 N2          3.1453   -6.7506   -1.8481 N.am      1 <0>        -0.6546
     13 C11         3.2870   -6.9640   -0.5139 C.2       1 <0>         0.3963
     14 N3          3.1907   -6.0217    0.3742 N.2       1 <0>        -0.5275
     15 C12         3.5700   -8.3664   -0.0403 C.3       1 <0>        -0.1102
     16 O1          2.7603   -5.3042   -3.5169 O.2       1 <0>        -0.4902
     17 C13        -0.0290   -0.7097   -2.3574 C.2       1 <0>         0.2900
     18 N4          0.4178   -1.1387   -3.5248 N.2       1 <0>        -0.5824
     19 C14        -0.3877   -1.3162   -4.5416 C.2       1 <0>         0.1263
     20 C15        -1.7279   -1.0297   -4.3239 C.2       1 <0>        -0.2764
     21 S1         -1.6819   -0.5225   -2.6122 S.3       1 <0>         0.1637
     22 C16        -2.8635   -1.1218   -5.2404 C.2       1 <0>         0.5976
     23 O2         -3.9800   -0.8217   -4.8585 O.2       1 <0>        -0.5563
     24 N5         -2.6744   -1.5391   -6.5079 N.am      1 <0>        -0.6686
     25 C17        -3.8121   -1.6314   -7.4262 C.3       1 <0>         0.0769
     26 H1         -4.6999   -1.9411   -6.8747 H         1 <0>         0.0788
     27 C18        -3.5050   -2.6594   -8.5170 C.3       1 <0>        -0.0821
     28 C19        -3.3788   -4.0484   -7.8878 C.3       1 <0>        -0.1776
     29 C20        -3.0763   -5.0609   -8.9622 C.2       1 <0>         0.4915
     30 O3         -2.9714   -4.7046  -10.1235 O.co2     1 <0>        -0.6978
     31 O4         -2.9365   -6.2363   -8.6702 O.co2     1 <0>        -0.7199
     32 C21        -4.0576   -0.2859   -8.0588 C.2       1 <0>         0.4987
     33 O5         -3.1281    0.4829   -8.2365 O.co2     1 <0>        -0.6976
     34 O6         -5.1857    0.0340   -8.3928 O.co2     1 <0>        -0.7011
     35 H2          1.0039    1.9031    0.0027 H         1 <0>         0.0602
     36 H3         -0.5459    1.8868   -0.8726 H         1 <0>         0.0644
     37 H4         -0.5289    1.8773    0.9072 H         1 <0>         0.0704
     38 H5          0.5293   -0.3651    0.8851 H         1 <0>         0.0862
     39 H6         -1.0205   -0.3814    0.0098 H         1 <0>         0.0790
     40 H7          2.5453   -0.5232   -2.1762 H         1 <0>         0.0977
     41 H8          2.5986   -0.0180   -0.4703 H         1 <0>         0.0894
     42 H9          2.4970   -1.6482    1.3146 H         1 <0>         0.1310
     43 H10         2.9564   -3.9499    2.0258 H         1 <0>         0.1373
     44 H11         2.3793   -2.8622   -2.7735 H         1 <0>         0.1494
     45 H12         4.6474   -8.5275   -0.0050 H         1 <0>         0.0966
     46 H13         3.1490   -8.5055    0.9555 H         1 <0>         0.1023
     47 H14         3.1182   -9.0805   -0.7288 H         1 <0>         0.0870
     48 H15         3.2275   -7.4945   -2.4651 H         1 <0>         0.4190
     49 H16        -0.0285   -1.6662   -5.4981 H         1 <0>         0.1792
     50 H17        -1.7849   -1.7782   -6.8121 H         1 <0>         0.3928
     51 H18        -4.3123   -2.6643   -9.2493 H         1 <0>         0.0733
     52 H19        -2.5688   -2.3974   -9.0099 H         1 <0>         0.0612
     53 H20        -2.5716   -4.0435   -7.1555 H         1 <0>         0.0517
     54 H21        -4.3150   -4.3104   -7.3949 H         1 <0>         0.0525
@<TRIPOS>BOND
     1    1    2 1
     2    1   35 1
     3    1   36 1
     4    1   37 1
     5    2    3 1
     6    2   38 1
     7    2   39 1
     8    3    4 1
     9    3   17 1
    10    4   40 1
    11    4   41 1
    12    4    5 1
    13    5   10 ar
    14    5    6 ar
    15    6   42 1
    16    6    7 ar
    17    7   43 1
    18    7    8 ar
    19    8    9 ar
    20    8   14 1
    21    9   11 1
    22    9   10 ar
    23   10   44 1
    24   11   16 2
    25   11   12 am
    26   12   13 1
    27   12   48 1
    28   13   14 2
    29   13   15 1
    30   15   45 1
    31   15   46 1
    32   15   47 1
    33   17   21 1
    34   17   18 2
    35   18   19 1
    36   19   20 2
    37   19   49 1
    38   20   21 1
    39   20   22 1
    40   22   23 2
    41   22   24 am
    42   24   25 1
    43   24   50 1
    44   25   26 1
    45   25   27 1
    46   25   32 1
    47   27   28 1
    48   27   51 1
    49   27   52 1
    50   28   29 1
    51   28   53 1
    52   28   54 1
    53   29   30 2
    54   29   31 1
    55   32   33 2
    56   32   34 1
@<TRIPOS>MOLECULE
CHEMBL9671
   62    66     0     0     0
SMALL
USER_CHARGES

@<TRIPOS>ATOM
      1 C1         -0.1347    1.5008    0.0243 C.3       1 <0>        -0.1533
      2 C2         -0.1065   -0.0059    0.0150 C.ar      1 <0>         0.0608
      3 C3         -0.2529   -0.6968   -1.1590 C.ar      1 <0>        -0.1656
      4 C4         -0.2347   -2.0885   -1.2278 C.ar      1 <0>         0.0587
      5 C5         -0.0627   -2.8302   -0.0733 C.ar      1 <0>        -0.1906
      6 C6          0.0866   -2.1161    1.1241 C.ar      1 <0>        -0.0606
      7 C7          0.0758   -0.7213    1.2067 C.ar      1 <0>        -0.0651
      8 C8          0.2451   -0.1515    2.4871 C.ar      1 <0>         0.2473
      9 C9          0.4143   -1.0020    3.5671 C.ar      1 <0>        -0.1263
     10 C10         0.4246   -2.3893    3.4430 C.ar      1 <0>        -0.0210
     11 C11         0.2508   -2.9776    2.2031 C.ar      1 <0>         0.0747
     12 N1          0.2081   -4.2766    1.7028 N.pl3     1 <0>        -0.5853
     13 C12         0.0198   -4.2433    0.3278 C.cat     1 <0>         0.5526
     14 N2         -0.0681   -5.2782   -0.4656 N.pl3     1 <0>        -0.6113
     15 C13         0.0334   -6.6327    0.0833 C.3       1 <0>         0.0318
     16 N3          0.2427    1.2314    2.6599 N.pl3     1 <0>        -0.6743
     17 C14         1.4885    1.9893    2.5198 C.3       1 <0>         0.1005
     18 C15        -1.0058    1.9271    2.9817 C.3       1 <0>         0.1690
     19 C16        -1.1729    1.9930    4.4780 C.ar      1 <0>        -0.0569
     20 C17        -1.8311    0.9770    5.1453 C.ar      1 <0>        -0.1277
     21 C18        -1.9844    1.0373    6.5178 C.ar      1 <0>        -0.0202
     22 C19        -1.4790    2.1135    7.2230 C.ar      1 <0>        -0.6722
     23 C20        -0.8200    3.1291    6.5558 C.ar      1 <0>        -0.0170
     24 C21        -0.6629    3.0666    5.1838 C.ar      1 <0>        -0.1223
     25 S1         -1.6754    2.1910    8.9723 S.o2      1 <0>         2.6866
     26 O1         -1.5921    3.5638    9.3299 O.2       1 <0>        -0.9459
     27 O2         -2.8039    1.3881    9.2903 O.2       1 <0>        -0.9480
     28 N4         -0.3592    1.4457    9.6463 N.pl3     1 <0>        -0.9997
     29 C22        -0.3686    0.0016    9.9289 C.3       1 <0>         0.0842
     30 C23         0.8988   -0.6169    9.3280 C.3       1 <0>         0.0491
     31 O3          2.0406    0.1120    9.7850 O.3       1 <0>        -0.3730
     32 C24         2.0624    1.4818    9.3765 C.3       1 <0>         0.0484
     33 C25         0.8567    2.2068    9.9747 C.3       1 <0>         0.0837
     34 H1          0.8853    1.8836   -0.0086 H         1 <0>         0.0982
     35 H2         -0.6854    1.8592   -0.8454 H         1 <0>         0.0801
     36 H3         -0.6245    1.8495    0.9335 H         1 <0>         0.1040
     37 H4         -0.3889   -0.1374   -2.0727 H         1 <0>         0.1512
     38 H5         -0.3549   -2.5859   -2.1789 H         1 <0>         0.1491
     39 H6          0.5442   -0.5705    4.5486 H         1 <0>         0.1465
     40 H7          0.5609   -3.0073    4.3181 H         1 <0>         0.1472
     41 H8         -0.2006   -5.1495   -1.4178 H         1 <0>         0.4485
     42 H9         -0.0624   -7.3597   -0.7231 H         1 <0>         0.1219
     43 H10         1.0007   -6.7557    0.5705 H         1 <0>         0.0947
     44 H11        -0.7626   -6.7904    0.8111 H         1 <0>         0.0947
     45 H12         1.6088    2.3022    1.4826 H         1 <0>         0.0526
     46 H13         1.4531    2.8687    3.1628 H         1 <0>         0.0717
     47 H14         2.3307    1.3609    2.8096 H         1 <0>         0.0622
     48 H15        -0.9737    2.9379    2.5749 H         1 <0>         0.0964
     49 H16        -1.8458    1.3865    2.5457 H         1 <0>         0.0838
     50 H17        -2.2260    0.1362    4.5943 H         1 <0>         0.1277
     51 H18        -2.4993    0.2439    7.0391 H         1 <0>         0.1394
     52 H19        -0.4254    3.9700    7.1067 H         1 <0>         0.1416
     53 H20        -0.1448    3.8582    4.6630 H         1 <0>         0.1339
     54 H21        -0.3813   -0.1615   11.0065 H         1 <0>         0.0888
     55 H22        -1.2494   -0.4550    9.4775 H         1 <0>         0.0987
     56 H23         0.9809   -1.6571    9.6431 H         1 <0>         0.1080
     57 H24         0.8473   -0.5682    8.2403 H         1 <0>         0.0522
     58 H25         2.9817    1.9515    9.7265 H         1 <0>         0.1106
     59 H26         2.0151    1.5382    8.2890 H         1 <0>         0.0537
     60 H27         0.7869    3.2098    9.5537 H         1 <0>         0.1007
     61 H28         0.9695    2.2695   11.0570 H         1 <0>         0.0889
     62 H29         0.2965   -5.0829    2.2347 H         1 <0>         0.4418
@<TRIPOS>BOND
     1    1    2 1
     2    1   34 1
     3    1   35 1
     4    1   36 1
     5    2    7 ar
     6    2    3 ar
     7    3    4 ar
     8    3   37 1
     9    4    5 ar
    10    4   38 1
    11    5   13 1
    12    5    6 ar
    13    6   11 ar
    14    6    7 ar
    15    7    8 ar
    16    8    9 ar
    17    8   16 1
    18    9   10 ar
    19    9   39 1
    20   10   11 ar
    21   10   40 1
    22   11   12 1
    23   12   13 1
    24   12   62 1
    25   13   14 2
    26   14   15 1
    27   14   41 1
    28   15   42 1
    29   15   43 1
    30   15   44 1
    31   16   17 1
    32   16   18 1
    33   17   45 1
    34   17   46 1
    35   17   47 1
    36   18   19 1
    37   18   48 1
    38   18   49 1
    39   19   24 ar
    40   19   20 ar
    41   20   21 ar
    42   20   50 1
    43   21   22 ar
    44   21   51 1
    45   22   23 ar
    46   22   25 1
    47   23   24 ar
    48   23   52 1
    49   24   53 1
    50   25   26 2
    51   25   27 2
    52   25   28 1
    53   28   33 1
    54   28   29 1
    55   29   30 1
    56   29   54 1
    57   29   55 1
    58   30   31 1
    59   30   56 1
    60   30   57 1
    61   31   32 1
    62   32   33 1
    63   32   58 1
    64   32   59 1
    65   33   60 1
    66   33   61 1
@<TRIPOS>MOLECULE
CHEMBL1161226
   33    34     0     0     0
SMALL
USER_CHARGES

@<TRIPOS>ATOM
      1 C1         -0.0164    1.3603    0.0095 C.2       1 <0>         0.1890
      2 C2          1.1568    2.0383    0.0020 C.2       1 <0>        -0.0982
      3 C3          2.3661    1.3106   -0.0135 C.2       1 <0>         0.5023
      4 N1          2.3335   -0.0154   -0.0203 N.2       1 <0>        -0.5630
      5 C4          1.1725   -0.6678   -0.0127 C.2       1 <0>         0.6446
      6 O1          1.1701   -1.8878   -0.0188 O.2       1 <0>        -0.4813
      7 N2          0.0021   -0.0041    0.0020 N.am      1 <0>        -0.5153
      8 C5         -1.2587   -0.7501    0.0105 C.3       1 <0>         0.2798
      9 H1         -2.1015   -0.0682    0.1241 H         1 <0>         0.1092
     10 C6         -1.4048   -1.5741   -1.2880 C.3       1 <0>        -0.1862
     11 C7         -2.0779   -2.8860   -0.8264 C.3       1 <0>         0.0806
     12 H2         -1.4321   -3.7396   -1.0326 H         1 <0>         0.0858
     13 C8         -2.2588   -2.6995    0.6964 C.3       1 <0>         0.0918
     14 H3         -3.2559   -2.3180    0.9162 H         1 <0>         0.0894
     15 O2         -1.2569   -1.7284    1.0729 O.3       1 <0>        -0.3284
     16 C9         -2.0231   -4.0231    1.4268 C.3       1 <0>         0.1399
     17 O3         -2.3082   -3.8572    2.8172 O.3       1 <0>        -0.7523
     18 P1         -2.1672   -5.0497    3.8897 P.3       1 <0>         2.1286
     19 O4         -3.0232   -6.2759    3.4226 O.2       1 <0>        -1.1893
     20 O5         -0.6637   -5.4752    4.0030 O.3       1 <0>        -1.1855
     21 O6         -2.6777   -4.5585    5.2870 O.3       1 <0>        -1.1680
     22 O7         -3.3443   -3.0515   -1.4673 O.3       1 <0>        -0.5516
     23 N3          3.5724    1.9732   -0.0219 N.pl3     1 <0>        -0.5627
     24 O8          4.7832    1.2392   -0.0374 O.3       1 <0>        -0.2950
     25 F1          1.1688    3.3892    0.0087 F         1 <0>        -0.1273
     26 H4         -0.9554    1.8938    0.0258 H         1 <0>         0.1894
     27 H5         -2.0392   -1.0505   -2.0032 H         1 <0>         0.0899
     28 H6         -0.4264   -1.7790   -1.7224 H         1 <0>         0.0929
     29 H7         -2.6772   -4.7892    1.0107 H         1 <0>         0.0575
     30 H8         -0.9835   -4.3264    1.3028 H         1 <0>         0.0473
     31 H9         -3.2923   -3.1139   -2.4309 H         1 <0>         0.3738
     32 H10         3.5931    2.9429   -0.0172 H         1 <0>         0.4263
     33 H11         5.5775    1.7908   -0.0424 H         1 <0>         0.3860
@<TRIPOS>BOND
     1    1    7 1
     2    1    2 2
     3    1   26 1
     4    2    3 1
     5    2   25 1
     6    3    4 2
     7    3   23 1
     8    4    5 1
     9    5    6 2
    10    5    7 am
    11    7    8 1
    12    8    9 1
    13    8   15 1
    14    8   10 1
    15   10   11 1
    16   10   27 1
    17   10   28 1
    18   11   12 1
    19   11   13 1
    20   11   22 1
    21   13   14 1
    22   13   15 1
    23   13   16 1
    24   16   17 1
    25   16   29 1
    26   16   30 1
    27   17   18 1
    28   18   19 2
    29   18   20 1
    30   18   21 1
    31   22   31 1
    32   23   24 1
    33   23   32 1
    34   24   33 1
@<TRIPOS>MOLECULE
CHEMBL1161226__1
   34    35     0     0     0
SMALL
USER_CHARGES

@<TRIPOS>ATOM
      1 C1         -0.0164    1.3603    0.0095 C.2       1 <0>         0.1827
      2 C2          1.1568    2.0383    0.0020 C.2       1 <0>        -0.0884
      3 C3          2.3661    1.3106   -0.0135 C.2       1 <0>         0.5042
      4 N1          2.3335   -0.0154   -0.0203 N.2       1 <0>        -0.5645
      5 C4          1.1725   -0.6678   -0.0127 C.2       1 <0>         0.6483
      6 O1          1.1701   -1.8878   -0.0188 O.2       1 <0>        -0.4916
      7 N2          0.0021   -0.0041    0.0020 N.am      1 <0>        -0.5195
      8 C5         -1.2587   -0.7501    0.0105 C.3       1 <0>         0.2858
      9 H1         -2.1015   -0.0682    0.1241 H         1 <0>         0.1118
     10 C6         -1.4048   -1.5741   -1.2880 C.3       1 <0>        -0.1886
     11 C7         -2.0779   -2.8860   -0.8264 C.3       1 <0>         0.0822
     12 H2         -1.4321   -3.7396   -1.0326 H         1 <0>         0.0877
     13 C8         -2.2588   -2.6995    0.6964 C.3       1 <0>         0.0897
     14 H3         -3.2559   -2.3180    0.9162 H         1 <0>         0.0941
     15 O2         -1.2569   -1.7284    1.0729 O.3       1 <0>        -0.3354
     16 C9         -2.0231   -4.0231    1.4268 C.3       1 <0>         0.1456
     17 O3         -2.3082   -3.8572    2.8172 O.3       1 <0>        -0.7549
     18 P1         -2.1672   -5.0497    3.8897 P.3       1 <0>         2.2108
     19 O4         -3.0113   -6.2590    3.4290 O.2       1 <0>        -1.1085
     20 O5         -0.6845   -5.4693    4.0014 O.3       1 <0>        -1.1040
     21 O6         -2.6918   -4.5449    5.3256 O.3       1 <0>        -0.8969
     22 O7         -3.3443   -3.0515   -1.4673 O.3       1 <0>        -0.5537
     23 N3          3.5724    1.9732   -0.0219 N.pl3     1 <0>        -0.5585
     24 O8          4.7832    1.2392   -0.0374 O.3       1 <0>        -0.2943
     25 F1          1.1688    3.3892    0.0087 F         1 <0>        -0.1236
     26 H4         -0.9554    1.8938    0.0258 H         1 <0>         0.1905
     27 H5         -2.0392   -1.0505   -2.0032 H         1 <0>         0.0947
     28 H6         -0.4264   -1.7790   -1.7224 H         1 <0>         0.0970
     29 H7         -2.6772   -4.7892    1.0107 H         1 <0>         0.0761
     30 H8         -0.9835   -4.3264    1.3028 H         1 <0>         0.0673
     31 H9         -2.6362   -5.2135    6.0220 H         1 <0>         0.4141
     32 H10        -3.2923   -3.1139   -2.4309 H         1 <0>         0.3817
     33 H11         3.5931    2.9429   -0.0172 H         1 <0>         0.4283
     34 H12         5.5775    1.7908   -0.0424 H         1 <0>         0.3898
@<TRIPOS>BOND
     1    1    7 1
     2    1    2 2
     3    1   26 1
     4    2    3 1
     5    2   25 1
     6    3    4 2
     7    3   23 1
     8    4    5 1
     9    5    6 2
    10    5    7 am
    11    7    8 1
    12    8    9 1
    13    8   15 1
    14    8   10 1
    15   10   11 1
    16   10   27 1
    17   10   28 1
    18   11   12 1
    19   11   13 1
    20   11   22 1
    21   13   14 1
    22   13   15 1
    23   13   16 1
    24   16   17 1
    25   16   29 1
    26   16   30 1
    27   17   18 1
    28   18   19 2
    29   18   20 1
    30   18   21 1
    31   21   31 1
    32   22   32 1
    33   23   24 1
    34   23   33 1
    35   24   34 1
@<TRIPOS>MOLECULE
CHEMBL561972
   56    58     0     0     0
SMALL
USER_CHARGES

@<TRIPOS>ATOM
      1 C1          0.0180   -1.1779   -0.0044 C.1       1 <0>        -0.1877
      2 C2          0.0021   -0.0041    0.0020 C.1       1 <0>        -0.2082
      3 C3         -0.0179    1.4678    0.0101 C.3       1 <0>         0.2306
      4 N1          1.3565    1.9749   -0.0003 N.pl3     1 <0>        -0.6155
      5 C4          2.0316    2.2352   -1.2741 C.3       1 <0>         0.1590
      6 C5          1.7714    3.6575   -1.6991 C.ar      1 <0>        -0.0490
      7 C6          0.6622    3.9450   -2.4842 C.ar      1 <0>        -0.1462
      8 C7          0.4020    5.2268   -2.8836 C.ar      1 <0>        -0.0306
      9 C8          1.2613    6.2543   -2.4970 C.ar      1 <0>        -0.2323
     10 C9          2.3910    5.9655   -1.6981 C.ar      1 <0>         0.2107
     11 C10         2.6269    4.6460   -1.3017 C.ar      1 <0>        -0.1093
     12 N2          3.2151    6.9754   -1.3322 N.2       1 <0>        -0.5788
     13 C11         2.9891    8.2112   -1.7013 C.2       1 <0>         0.6360
     14 N3          1.9234    8.5758   -2.4714 N.am      1 <0>        -0.6677
     15 H1          1.8032    9.5065   -2.7167 H         1 <0>         0.4114
     16 C12         1.0329    7.6496   -2.8961 C.2       1 <0>         0.5697
     17 O1          0.0779    7.9610   -3.5838 O.2       1 <0>        -0.5178
     18 N4          3.8652    9.1856   -1.2941 N.pl3     1 <0>        -0.8255
     19 C13         2.0203    2.2090    1.1989 C.ar      1 <0>         0.2222
     20 C14         3.3243    2.6963    1.1874 C.ar      1 <0>        -0.2032
     21 C15         3.9839    2.9291    2.3725 C.ar      1 <0>        -0.0173
     22 C16         3.3431    2.6757    3.5888 C.ar      1 <0>        -0.1610
     23 C17         2.0335    2.1865    3.5970 C.ar      1 <0>        -0.0374
     24 C18         1.3773    1.9611    2.4086 C.ar      1 <0>        -0.1964
     25 C19         4.0474    2.9237    4.8610 C.2       1 <0>         0.5495
     26 O2          5.1866    3.3489    4.8524 O.2       1 <0>        -0.5596
     27 N5          3.4283    2.6790    6.0329 N.am      1 <0>        -0.6790
     28 C20         4.1278    2.9253    7.2963 C.3       1 <0>         0.0748
     29 H2          5.1859    2.6924    7.1772 H         1 <0>         0.0769
     30 C21         3.5306    2.0389    8.3911 C.3       1 <0>        -0.0822
     31 C22         3.7982    0.5693    8.0600 C.3       1 <0>        -0.1768
     32 C23         3.2100   -0.3037    9.1384 C.2       1 <0>         0.4912
     33 O3          2.6304    0.2025   10.0840 O.co2     1 <0>        -0.6980
     34 O4          3.3137   -1.5163    9.0651 O.co2     1 <0>        -0.7202
     35 C24         3.9726    4.3737    7.6824 C.2       1 <0>         0.4986
     36 O5          2.9735    4.9891    7.3516 O.co2     1 <0>        -0.6990
     37 O6          4.8463    4.9302    8.3255 O.co2     1 <0>        -0.7030
     38 H3          0.0322   -2.2278   -0.0102 H         1 <0>         0.2148
     39 H4         -0.5451    1.8289   -0.8729 H         1 <0>         0.0958
     40 H5         -0.5281    1.8193    0.9069 H         1 <0>         0.1027
     41 H6          3.1042    2.0821   -1.1549 H         1 <0>         0.0919
     42 H7          1.6495    1.5533   -2.0338 H         1 <0>         0.0868
     43 H8         -0.0019    3.1474   -2.7828 H         1 <0>         0.1270
     44 H9         -0.4625    5.4415   -3.4943 H         1 <0>         0.1325
     45 H10         3.4830    4.4085   -0.6876 H         1 <0>         0.1431
     46 H11         4.6304    8.9516   -0.7458 H         1 <0>         0.4309
     47 H12         3.7194   10.1086   -1.5546 H         1 <0>         0.4108
     48 H13         3.8190    2.8915    0.2474 H         1 <0>         0.1240
     49 H14         4.9956    3.3068    2.3629 H         1 <0>         0.1338
     50 H15         1.5360    1.9894    4.5351 H         1 <0>         0.1286
     51 H16         0.3640    1.5876    2.4143 H         1 <0>         0.1232
     52 H17         2.5196    2.3398    6.0397 H         1 <0>         0.3901
     53 H18         3.9896    2.2851    9.3486 H         1 <0>         0.0715
     54 H19         2.4554    2.2082    8.4494 H         1 <0>         0.0595
     55 H20         3.3392    0.3231    7.1025 H         1 <0>         0.0515
     56 H21         4.8734    0.4000    8.0017 H         1 <0>         0.0525
@<TRIPOS>BOND
     1    1    2 3
     2    1   38 1
     3    2    3 1
     4    3    4 1
     5    3   39 1
     6    3   40 1
     7    4    5 1
     8    4   19 1
     9    5    6 1
    10    5   41 1
    11    5   42 1
    12    6   11 ar
    13    6    7 ar
    14    7    8 ar
    15    7   43 1
    16    8    9 ar
    17    8   44 1
    18    9   16 1
    19    9   10 ar
    20   10   11 ar
    21   10   12 1
    22   11   45 1
    23   12   13 2
    24   13   14 1
    25   13   18 1
    26   14   15 1
    27   14   16 am
    28   16   17 2
    29   18   46 1
    30   18   47 1
    31   19   24 ar
    32   19   20 ar
    33   20   21 ar
    34   20   48 1
    35   21   22 ar
    36   21   49 1
    37   22   23 ar
    38   22   25 1
    39   23   24 ar
    40   23   50 1
    41   24   51 1
    42   25   26 2
    43   25   27 am
    44   27   28 1
    45   27   52 1
    46   28   29 1
    47   28   30 1
    48   28   35 1
    49   30   31 1
    50   30   53 1
    51   30   54 1
    52   31   32 1
    53   31   55 1
    54   31   56 1
    55   32   33 2
    56   32   34 1
    57   35   36 2
    58   35   37 1
@<TRIPOS>MOLECULE
CHEMBL171314
   57    61     0     0     0
SMALL
USER_CHARGES

@<TRIPOS>ATOM
      1 C1         -0.8518    2.3008    0.1091 C.3       1 <0>         0.0216
      2 O1         -0.5815    0.8996    0.0337 O.3       1 <0>        -0.3077
      3 C2         -1.6529    0.0636    0.0346 C.ar      1 <0>         0.1870
      4 C3         -2.9383    0.5815    0.1009 C.ar      1 <0>        -0.2300
      5 C4         -4.0258   -0.2704    0.1013 C.ar      1 <0>         0.0193
      6 C5         -3.8340   -1.6382    0.0361 C.ar      1 <0>        -0.6989
      7 C6         -2.5540   -2.1568   -0.0296 C.ar      1 <0>         0.0185
      8 C7         -1.4634   -1.3089   -0.0364 C.ar      1 <0>        -0.1692
      9 S1         -5.2232   -2.7221    0.0373 S.o2      1 <0>         2.5817
     10 O2         -4.7596   -3.9759    0.5194 O.2       1 <0>        -0.9305
     11 O3         -6.2894   -2.0151    0.6558 O.2       1 <0>        -0.9348
     12 C8         -5.6916   -2.9706   -1.6430 C.ar      1 <0>        -0.6490
     13 C9         -6.6063   -2.1222   -2.2382 C.ar      1 <0>        -0.0210
     14 C10        -6.9738   -2.3171   -3.5565 C.ar      1 <0>        -0.1268
     15 C11        -6.4262   -3.3602   -4.2797 C.ar      1 <0>        -0.0601
     16 C12        -5.5107   -4.2080   -3.6847 C.ar      1 <0>        -0.1193
     17 C13        -5.1400   -4.0105   -2.3678 C.ar      1 <0>        -0.0165
     18 C14        -6.8275   -3.5733   -5.7166 C.3       1 <0>         0.1523
     19 N1         -5.8524   -2.9254   -6.5972 N.pl3     1 <0>        -0.6098
     20 C15        -4.7425   -3.6943   -7.1762 C.3       1 <0>         0.1163
     21 C16        -3.4653   -2.8570   -7.0281 C.3       1 <0>        -0.1410
     22 C17        -3.6179   -1.5745   -7.8451 C.3       1 <0>        -0.0819
     23 C18        -4.9084   -0.8781   -7.4991 C.ar      1 <0>        -0.0917
     24 C19        -5.9662   -1.5620   -6.9062 C.ar      1 <0>         0.2605
     25 C20        -7.1477   -0.9056   -6.6053 C.ar      1 <0>        -0.1771
     26 C21        -7.2844    0.4519   -6.9006 C.ar      1 <0>         0.1099
     27 C22        -6.2163    1.1375   -7.5018 C.ar      1 <0>         0.0316
     28 C23        -5.0335    0.4686   -7.7884 C.ar      1 <0>        -0.0465
     29 N2         -6.6448    2.4471   -7.6675 N.pl3     1 <0>        -0.5626
     30 H1         -6.1346    3.1746   -8.0567 H         1 <0>         0.4574
     31 C24        -7.9178    2.5208   -7.1803 C.cat     1 <0>         0.6484
     32 N3         -8.2913    1.3487   -6.7308 N.pl3     1 <0>        -0.5384
     33 N4         -8.6948    3.6601   -7.1635 N.pl3     1 <0>        -0.7980
     34 H2          0.0878    2.8531    0.0998 H         1 <0>         0.1086
     35 H3         -1.4579    2.6004   -0.7459 H         1 <0>         0.0588
     36 H4         -1.3916    2.5175    1.0309 H         1 <0>         0.0629
     37 H5         -3.0885    1.6497    0.1526 H         1 <0>         0.1399
     38 H6         -5.0265    0.1322    0.1529 H         1 <0>         0.1435
     39 H7         -2.4068   -3.2256   -0.0800 H         1 <0>         0.1506
     40 H8         -0.4639   -1.7143   -0.0922 H         1 <0>         0.1454
     41 H9         -7.0342   -1.3072   -1.6732 H         1 <0>         0.1422
     42 H10        -7.6890   -1.6547   -4.0213 H         1 <0>         0.1267
     43 H11        -5.0831   -5.0231   -4.2497 H         1 <0>         0.1350
     44 H12        -4.4220   -4.6706   -1.9040 H         1 <0>         0.1468
     45 H13        -6.8572   -4.6416   -5.9309 H         1 <0>         0.1039
     46 H14        -7.8137   -3.1411   -5.8862 H         1 <0>         0.0905
     47 H15        -4.6292   -4.6380   -6.6426 H         1 <0>         0.0918
     48 H16        -4.9375   -3.8869   -8.2311 H         1 <0>         0.0758
     49 H17        -3.3133   -2.6054   -5.9785 H         1 <0>         0.0758
     50 H18        -2.6114   -3.4253   -7.3967 H         1 <0>         0.0921
     51 H19        -2.7815   -0.9094   -7.6301 H         1 <0>         0.0893
     52 H20        -3.6162   -1.8219   -8.9067 H         1 <0>         0.0900
     53 H21        -7.9625   -1.4432   -6.1431 H         1 <0>         0.1471
     54 H22        -4.2134    0.9978   -8.2506 H         1 <0>         0.1493
     55 H23        -8.3431    4.4922   -7.5167 H         1 <0>         0.4421
     56 H24        -9.5930    3.6292   -6.7985 H         1 <0>         0.4418
     57 H25        -9.1554    1.1507   -6.3370 H         1 <0>         0.4562
@<TRIPOS>BOND
     1    1    2 1
     2    1   34 1
     3    1   35 1
     4    1   36 1
     5    2    3 1
     6    3    8 ar
     7    3    4 ar
     8    4    5 ar
     9    4   37 1
    10    5    6 ar
    11    5   38 1
    12    6    7 ar
    13    6    9 1
    14    7    8 ar
    15    7   39 1
    16    8   40 1
    17    9   10 2
    18    9   11 2
    19    9   12 1
    20   12   17 ar
    21   12   13 ar
    22   13   14 ar
    23   13   41 1
    24   14   15 ar
    25   14   42 1
    26   15   16 ar
    27   15   18 1
    28   16   17 ar
    29   16   43 1
    30   17   44 1
    31   18   19 1
    32   18   45 1
    33   18   46 1
    34   19   24 1
    35   19   20 1
    36   20   21 1
    37   20   47 1
    38   20   48 1
    39   21   22 1
    40   21   49 1
    41   21   50 1
    42   22   23 1
    43   22   51 1
    44   22   52 1
    45   23   28 ar
    46   23   24 ar
    47   24   25 ar
    48   25   26 ar
    49   25   53 1
    50   26   32 1
    51   26   27 ar
    52   27   28 ar
    53   27   29 1
    54   28   54 1
    55   29   30 1
    56   29   31 1
    57   31   32 2
    58   31   33 1
    59   32   57 1
    60   33   55 1
    61   33   56 1
@<TRIPOS>MOLECULE
CHEMBL389643
   50    52     0     0     0
SMALL
USER_CHARGES

@<TRIPOS>ATOM
      1 C1          2.4768   -1.5819    1.0146 C.3       1 <0>        -0.1138
      2 C2          1.1034   -1.3485    0.4397 C.2       1 <0>        -0.0153
      3 C3          0.6623   -1.6594   -0.9200 C.ar      1 <0>        -0.2569
      4 C4          1.2702   -2.2184   -2.0550 C.ar      1 <0>         0.5832
      5 N1          0.5433   -2.3570   -3.1590 N.ar      1 <0>        -0.5903
      6 C5         -0.7279   -1.9770   -3.1917 C.ar      1 <0>         0.6978
      7 N2         -1.3378   -1.4461   -2.1457 N.ar      1 <0>        -0.5716
      8 C6         -0.6868   -1.2699   -0.9966 C.ar      1 <0>         0.3537
      9 N3         -1.0349   -0.7609    0.2278 N.pl3     1 <0>        -0.5146
     10 H1         -1.9117   -0.4159    0.4581 H         1 <0>         0.4385
     11 C7          0.0400   -0.8171    1.0827 C.2       1 <0>         0.0062
     12 S1          0.0336   -0.2752    2.7593 S.3       1 <0>         0.0931
     13 C8         -0.0862   -1.7672    3.6890 C.ar      1 <0>        -0.1263
     14 C9         -0.0499   -2.9976    3.0367 C.ar      1 <0>        -0.1294
     15 C10        -0.1423   -4.1600    3.7574 C.ar      1 <0>        -0.0522
     16 C11        -0.2732   -4.1098    5.1489 C.ar      1 <0>        -0.0844
     17 C12        -0.3093   -2.8731    5.8010 C.ar      1 <0>        -0.0672
     18 C13        -0.2111   -1.7142    5.0755 C.ar      1 <0>        -0.0867
     19 C14        -0.3734   -5.3585    5.9270 C.2       1 <0>         0.5438
     20 O1         -0.3423   -6.4331    5.3588 O.2       1 <0>        -0.5501
     21 N4         -0.4995   -5.3086    7.2679 N.am      1 <0>        -0.6683
     22 C15        -0.5990   -6.5491    8.0409 C.3       1 <0>         0.0713
     23 H2          0.0209   -7.3166    7.5776 H         1 <0>         0.0804
     24 C16        -0.1169   -6.2988    9.4712 C.3       1 <0>        -0.0822
     25 C17         1.3730   -5.9513    9.4537 C.3       1 <0>        -0.1773
     26 C18         1.8480   -5.7047   10.8625 C.2       1 <0>         0.4896
     27 O2          1.0672   -5.7983   11.7942 O.co2     1 <0>        -0.6947
     28 O3          3.0130   -5.4117   11.0706 O.co2     1 <0>        -0.7185
     29 C19        -2.0334   -7.0105    8.0679 C.2       1 <0>         0.4960
     30 O4         -2.8929   -6.3631    7.4945 O.co2     1 <0>        -0.6998
     31 O5         -2.3344   -8.0311    8.6630 O.co2     1 <0>        -0.6933
     32 N5         -1.4433   -2.1427   -4.3675 N.pl3     1 <0>        -0.7938
     33 N6          2.5960   -2.6156   -2.0252 N.pl3     1 <0>        -0.7742
     34 H3          2.5214   -2.5774    1.4564 H         1 <0>         0.0985
     35 H4          3.2208   -1.5025    0.2219 H         1 <0>         0.0736
     36 H5          2.6815   -0.8346    1.7812 H         1 <0>         0.1038
     37 H6          0.0509   -3.0357    1.9621 H         1 <0>         0.1169
     38 H7         -0.1145   -5.1135    3.2512 H         1 <0>         0.1401
     39 H8         -0.4107   -2.8313    6.8754 H         1 <0>         0.1428
     40 H9         -0.2345   -0.7590    5.5789 H         1 <0>         0.1365
     41 H10        -0.5243   -4.4514    7.7212 H         1 <0>         0.3901
     42 H11        -0.6780   -5.4707    9.9042 H         1 <0>         0.0564
     43 H12        -0.2736   -7.1962   10.0698 H         1 <0>         0.0821
     44 H13         1.9342   -6.7793    9.0208 H         1 <0>         0.0525
     45 H14         1.5298   -5.0539    8.8552 H         1 <0>         0.0479
     46 H15        -1.0137   -2.5301   -5.1461 H         1 <0>         0.4448
     47 H16        -2.3735   -1.8713   -4.4116 H         1 <0>         0.4283
     48 H17         3.1162   -2.5089   -1.2135 H         1 <0>         0.4310
     49 H18         3.0048   -3.0006   -2.8162 H         1 <0>         0.4274
     50 H19        -2.2687   -1.1825   -2.2154 H         1 <0>         0.4344
@<TRIPOS>BOND
     1    1    2 1
     2    1   34 1
     3    1   35 1
     4    1   36 1
     5    2   11 2
     6    2    3 1
     7    3    8 ar
     8    3    4 ar
     9    4    5 ar
    10    4   33 1
    11    5    6 ar
    12    6    7 ar
    13    6   32 1
    14    7    8 ar
    15    7   50 1
    16    8    9 1
    17    9   10 1
    18    9   11 1
    19   11   12 1
    20   12   13 1
    21   13   18 ar
    22   13   14 ar
    23   14   15 ar
    24   14   37 1
    25   15   16 ar
    26   15   38 1
    27   16   17 ar
    28   16   19 1
    29   17   18 ar
    30   17   39 1
    31   18   40 1
    32   19   20 2
    33   19   21 am
    34   21   22 1
    35   21   41 1
    36   22   23 1
    37   22   24 1
    38   22   29 1
    39   24   25 1
    40   24   42 1
    41   24   43 1
    42   25   26 1
    43   25   44 1
    44   25   45 1
    45   26   27 2
    46   26   28 1
    47   29   30 2
    48   29   31 1
    49   32   46 1
    50   32   47 1
    51   33   48 1
    52   33   49 1
@<TRIPOS>MOLECULE
CHEMBL1159760
   44    46     0     0     0
SMALL
USER_CHARGES

@<TRIPOS>ATOM
      1 C1         -0.0184    1.5028    0.0103 C.3       1 <0>        -0.1131
      2 C2          0.0021   -0.0041    0.0020 C.ar      1 <0>        -0.0858
      3 C3          0.0057   -0.6865   -1.2013 C.ar      1 <0>        -0.1229
      4 C4          0.0244   -2.0663   -1.2150 C.ar      1 <0>        -0.0868
      5 C5          0.0401   -2.7724   -0.0132 C.ar      1 <0>        -0.0152
      6 C6          0.0368   -2.0794    1.1963 C.ar      1 <0>        -0.0947
      7 C7          0.0229   -0.6994    1.1977 C.ar      1 <0>        -0.1168
      8 C8          0.0597   -4.2551   -0.0214 C.2       1 <0>        -0.2396
      9 C9          1.1300   -4.9426    0.4691 C.2       1 <0>         0.2014
     10 N1          1.1186   -6.3079    0.4484 N.am      1 <0>        -0.5334
     11 C10         0.0733   -6.9909   -0.0459 C.2       1 <0>         0.7015
     12 O1          0.1073   -8.2063   -0.0438 O.2       1 <0>        -0.5448
     13 N2         -1.0099   -6.3682   -0.5427 N.am      1 <0>        -0.6575
     14 H1         -1.7489   -6.8904   -0.8923 H         1 <0>         0.4279
     15 C11        -1.0761   -5.0203   -0.5525 C.2       1 <0>         0.5595
     16 O2         -2.0557   -4.4500   -0.9964 O.2       1 <0>        -0.5102
     17 C12         2.2708   -7.0429    0.9760 C.3       1 <0>         0.2987
     18 C13         1.8267   -7.9388    2.1522 C.3       1 <0>        -0.1827
     19 C14         3.0147   -7.7960    3.1422 C.3       1 <0>         0.0751
     20 C15         3.4353   -6.3267    2.8870 C.3       1 <0>         0.0844
     21 O3          3.2464   -6.1219    1.4778 O.3       1 <0>        -0.3384
     22 C16         4.9047   -6.1223    3.2611 C.3       1 <0>         0.1407
     23 O4          5.2417   -4.7398    3.1298 O.3       1 <0>        -0.7555
     24 P1          6.7114   -4.1620    3.4433 P.3       1 <0>         2.1289
     25 O5          7.1327   -4.5671    4.8968 O.2       1 <0>        -1.1899
     26 O6          7.7359   -4.7563    2.4178 O.3       1 <0>        -1.1863
     27 O7          6.6957   -2.6002    3.3203 O.3       1 <0>        -1.1671
     28 O8          4.0718   -8.6991    2.8119 O.3       1 <0>        -0.5363
     29 H2          1.0042    1.8801    0.0026 H         1 <0>         0.0725
     30 H3         -0.5455    1.8639   -0.8728 H         1 <0>         0.0618
     31 H4         -0.5286    1.8543    0.9071 H         1 <0>         0.0639
     32 H5         -0.0064   -0.1383   -2.1318 H         1 <0>         0.1200
     33 H6          0.0265   -2.5980   -2.1550 H         1 <0>         0.1184
     34 H7          0.0485   -2.6213    2.1304 H         1 <0>         0.1244
     35 H8          0.0244   -0.1614    2.1341 H         1 <0>         0.1244
     36 H9          1.9804   -4.4115    0.8706 H         1 <0>         0.1954
     37 H10         2.7108   -7.6550    0.1887 H         1 <0>         0.1217
     38 H11         0.9041   -7.5659    2.5970 H         1 <0>         0.0880
     39 H12         1.7126   -8.9738    1.8299 H         1 <0>         0.1037
     40 H13         2.6870   -7.9376    4.1721 H         1 <0>         0.0884
     41 H14         2.8010   -5.6473    3.4564 H         1 <0>         0.0939
     42 H15         5.0647   -6.4390    4.2917 H         1 <0>         0.0541
     43 H16         5.5344   -6.7144    2.5971 H         1 <0>         0.0545
     44 H17         3.8197   -9.6317    2.8536 H         1 <0>         0.3738
@<TRIPOS>BOND
     1    1    2 1
     2    1   29 1
     3    1   30 1
     4    1   31 1
     5    2    7 ar
     6    2    3 ar
     7    3    4 ar
     8    3   32 1
     9    4    5 ar
    10    4   33 1
    11    5    6 ar
    12    5    8 1
    13    6    7 ar
    14    6   34 1
    15    7   35 1
    16    8   15 1
    17    8    9 2
    18    9   10 1
    19    9   36 1
    20   10   11 am
    21   10   17 1
    22   11   12 2
    23   11   13 am
    24   13   14 1
    25   13   15 am
    26   15   16 2
    27   17   21 1
    28   17   18 1
    29   17   37 1
    30   18   19 1
    31   18   38 1
    32   18   39 1
    33   19   20 1
    34   19   28 1
    35   19   40 1
    36   20   21 1
    37   20   22 1
    38   20   41 1
    39   22   23 1
    40   22   42 1
    41   22   43 1
    42   23   24 1
    43   24   25 2
    44   24   26 1
    45   24   27 1
    46   28   44 1
@<TRIPOS>MOLECULE
CHEMBL1159760__1
   45    47     0     0     0
SMALL
USER_CHARGES

@<TRIPOS>ATOM
      1 C1         -0.0184    1.5028    0.0103 C.3       1 <0>        -0.1152
      2 C2          0.0021   -0.0041    0.0020 C.ar      1 <0>        -0.0831
      3 C3          0.0057   -0.6865   -1.2013 C.ar      1 <0>        -0.1211
      4 C4          0.0244   -2.0663   -1.2150 C.ar      1 <0>        -0.0854
      5 C5          0.0401   -2.7724   -0.0132 C.ar      1 <0>        -0.0191
      6 C6          0.0368   -2.0794    1.1963 C.ar      1 <0>        -0.0973
      7 C7          0.0229   -0.6994    1.1977 C.ar      1 <0>        -0.1194
      8 C8          0.0597   -4.2551   -0.0214 C.2       1 <0>        -0.2301
      9 C9          1.1300   -4.9426    0.4691 C.2       1 <0>         0.1926
     10 N1          1.1186   -6.3079    0.4484 N.am      1 <0>        -0.5369
     11 C10         0.0733   -6.9909   -0.0459 C.2       1 <0>         0.7023
     12 O1          0.1073   -8.2063   -0.0438 O.2       1 <0>        -0.5403
     13 N2         -1.0099   -6.3682   -0.5427 N.am      1 <0>        -0.6566
     14 H1         -1.7489   -6.8904   -0.8923 H         1 <0>         0.4310
     15 C11        -1.0761   -5.0203   -0.5525 C.2       1 <0>         0.5568
     16 O2         -2.0557   -4.4500   -0.9964 O.2       1 <0>        -0.5022
     17 C12         2.2708   -7.0429    0.9760 C.3       1 <0>         0.3041
     18 C13         1.8267   -7.9388    2.1522 C.3       1 <0>        -0.1847
     19 C14         3.0147   -7.7960    3.1422 C.3       1 <0>         0.0762
     20 C15         3.4353   -6.3267    2.8870 C.3       1 <0>         0.0837
     21 O3          3.2464   -6.1219    1.4778 O.3       1 <0>        -0.3454
     22 C16         4.9047   -6.1223    3.2611 C.3       1 <0>         0.1459
     23 O4          5.2417   -4.7398    3.1298 O.3       1 <0>        -0.7580
     24 P1          6.7114   -4.1620    3.4433 P.3       1 <0>         2.2117
     25 O5          7.1269   -4.5615    4.8767 O.2       1 <0>        -1.1092
     26 O6          7.7217   -4.7481    2.4320 O.3       1 <0>        -1.1048
     27 O7          6.6952   -2.5570    3.3169 O.3       1 <0>        -0.8972
     28 O8          4.0718   -8.6991    2.8119 O.3       1 <0>        -0.5425
     29 H2          1.0042    1.8801    0.0026 H         1 <0>         0.0717
     30 H3         -0.5455    1.8639   -0.8728 H         1 <0>         0.0648
     31 H4         -0.5286    1.8543    0.9071 H         1 <0>         0.0654
     32 H5         -0.0064   -0.1383   -2.1318 H         1 <0>         0.1223
     33 H6          0.0265   -2.5980   -2.1550 H         1 <0>         0.1201
     34 H7          0.0485   -2.6213    2.1304 H         1 <0>         0.1230
     35 H8          0.0244   -0.1614    2.1341 H         1 <0>         0.1240
     36 H9          1.9804   -4.4115    0.8706 H         1 <0>         0.1906
     37 H10         2.7108   -7.6550    0.1887 H         1 <0>         0.1250
     38 H11         0.9041   -7.5659    2.5970 H         1 <0>         0.0917
     39 H12         1.7126   -8.9738    1.8299 H         1 <0>         0.1091
     40 H13         2.6870   -7.9376    4.1721 H         1 <0>         0.0930
     41 H14         2.8010   -5.6473    3.4564 H         1 <0>         0.0986
     42 H15         5.0647   -6.4390    4.2917 H         1 <0>         0.0731
     43 H16         5.5344   -6.7144    2.5971 H         1 <0>         0.0739
     44 H17         7.5497   -2.1400    3.4930 H         1 <0>         0.4147
     45 H18         3.8197   -9.6317    2.8536 H         1 <0>         0.3829
@<TRIPOS>BOND
     1    1    2 1
     2    1   29 1
     3    1   30 1
     4    1   31 1
     5    2    7 ar
     6    2    3 ar
     7    3    4 ar
     8    3   32 1
     9    4    5 ar
    10    4   33 1
    11    5    6 ar
    12    5    8 1
    13    6    7 ar
    14    6   34 1
    15    7   35 1
    16    8   15 1
    17    8    9 2
    18    9   10 1
    19    9   36 1
    20   10   11 am
    21   10   17 1
    22   11   12 2
    23   11   13 am
    24   13   14 1
    25   13   15 am
    26   15   16 2
    27   17   21 1
    28   17   18 1
    29   17   37 1
    30   18   19 1
    31   18   38 1
    32   18   39 1
    33   19   20 1
    34   19   28 1
    35   19   40 1
    36   20   21 1
    37   20   22 1
    38   20   41 1
    39   22   23 1
    40   22   42 1
    41   22   43 1
    42   23   24 1
    43   24   25 2
    44   24   26 1
    45   24   27 1
    46   27   44 1
    47   28   45 1
@<TRIPOS>MOLECULE
CHEMBL1159760__2
   44    46     0     0     0
SMALL
USER_CHARGES

@<TRIPOS>ATOM
      1 C1         -0.0184    1.5028    0.0103 C.3       1 <0>        -0.1129
      2 C2          0.0021   -0.0041    0.0020 C.ar      1 <0>        -0.0854
      3 C3          0.0057   -0.6865   -1.2013 C.ar      1 <0>        -0.1247
      4 C4          0.0244   -2.0663   -1.2150 C.ar      1 <0>        -0.0877
      5 C5          0.0401   -2.7724   -0.0132 C.ar      1 <0>        -0.0182
      6 C6          0.0368   -2.0794    1.1963 C.ar      1 <0>        -0.0913
      7 C7          0.0229   -0.6994    1.1977 C.ar      1 <0>        -0.1149
      8 C8          0.0597   -4.2551   -0.0214 C.2       1 <0>        -0.2357
      9 C9          1.1300   -4.9426    0.4691 C.2       1 <0>         0.2028
     10 N1          1.1186   -6.3079    0.4484 N.am      1 <0>        -0.5235
     11 C10         0.0733   -6.9909   -0.0459 C.2       1 <0>         0.7042
     12 O1          0.1073   -8.2063   -0.0438 O.2       1 <0>        -0.5439
     13 N2         -1.0099   -6.3682   -0.5427 N.am      1 <0>        -0.6564
     14 H1         -1.7489   -6.8904   -0.8923 H         1 <0>         0.4288
     15 C11        -1.0761   -5.0203   -0.5525 C.2       1 <0>         0.5596
     16 O2         -2.0557   -4.4500   -0.9964 O.2       1 <0>        -0.5079
     17 C12         2.2708   -7.0429    0.9760 C.3       1 <0>         0.3006
     18 C13         1.8661   -7.8708    2.2222 C.3       1 <0>        -0.1885
     19 C14         3.2159   -8.0189    2.9656 C.3       1 <0>         0.0763
     20 C15         4.0810   -6.8710    2.4100 C.3       1 <0>         0.0903
     21 O3          3.2658   -6.1298    1.4868 O.3       1 <0>        -0.3475
     22 C16         4.5326   -5.9597    3.5530 C.3       1 <0>         0.1351
     23 O4          5.4274   -4.9676    3.0461 O.3       1 <0>        -0.7489
     24 P1          6.1003   -3.8372    3.9743 P.3       1 <0>         2.1255
     25 O5          4.9790   -3.0508    4.7352 O.2       1 <0>        -1.1857
     26 O6          7.0583   -4.5155    5.0118 O.3       1 <0>        -1.1869
     27 O7          6.9182   -2.8452    3.0791 O.3       1 <0>        -1.1648
     28 O8          3.8132   -9.2832    2.6708 O.3       1 <0>        -0.5526
     29 H2          1.0042    1.8801    0.0026 H         1 <0>         0.0723
     30 H3         -0.5455    1.8639   -0.8728 H         1 <0>         0.0611
     31 H4         -0.5286    1.8543    0.9071 H         1 <0>         0.0645
     32 H5         -0.0064   -0.1383   -2.1318 H         1 <0>         0.1193
     33 H6          0.0265   -2.5980   -2.1550 H         1 <0>         0.1175
     34 H7          0.0485   -2.6213    2.1304 H         1 <0>         0.1270
     35 H8          0.0244   -0.1614    2.1341 H         1 <0>         0.1262
     36 H9          1.9804   -4.4115    0.8706 H         1 <0>         0.1969
     37 H10         2.6990   -7.6862    0.2073 H         1 <0>         0.1114
     38 H11         1.1437   -7.3281    2.8319 H         1 <0>         0.0906
     39 H12         1.4733   -8.8451    1.9312 H         1 <0>         0.1030
     40 H13         3.0742   -7.9041    4.0403 H         1 <0>         0.0886
     41 H14         4.9497   -7.2785    1.8929 H         1 <0>         0.0974
     42 H15         3.6631   -5.4730    3.9948 H         1 <0>         0.0457
     43 H16         5.0412   -6.5539    4.3122 H         1 <0>         0.0553
     44 H17         3.2823  -10.0429    2.9467 H         1 <0>         0.3772
@<TRIPOS>BOND
     1    1    2 1
     2    1   29 1
     3    1   30 1
     4    1   31 1
     5    2    7 ar
     6    2    3 ar
     7    3    4 ar
     8    3   32 1
     9    4    5 ar
    10    4   33 1
    11    5    6 ar
    12    5    8 1
    13    6    7 ar
    14    6   34 1
    15    7   35 1
    16    8   15 1
    17    8    9 2
    18    9   10 1
    19    9   36 1
    20   10   11 am
    21   10   17 1
    22   11   12 2
    23   11   13 am
    24   13   14 1
    25   13   15 am
    26   15   16 2
    27   17   21 1
    28   17   18 1
    29   17   37 1
    30   18   19 1
    31   18   38 1
    32   18   39 1
    33   19   20 1
    34   19   28 1
    35   19   40 1
    36   20   21 1
    37   20   22 1
    38   20   41 1
    39   22   23 1
    40   22   42 1
    41   22   43 1
    42   23   24 1
    43   24   25 2
    44   24   26 1
    45   24   27 1
    46   28   44 1
@<TRIPOS>MOLECULE
CHEMBL1159760__3
   45    47     0     0     0
SMALL
USER_CHARGES

@<TRIPOS>ATOM
      1 C1         -0.0184    1.5028    0.0103 C.3       1 <0>        -0.1151
      2 C2          0.0021   -0.0041    0.0020 C.ar      1 <0>        -0.0826
      3 C3          0.0057   -0.6865   -1.2013 C.ar      1 <0>        -0.1228
      4 C4          0.0244   -2.0663   -1.2150 C.ar      1 <0>        -0.0862
      5 C5          0.0401   -2.7724   -0.0132 C.ar      1 <0>        -0.0221
      6 C6          0.0368   -2.0794    1.1963 C.ar      1 <0>        -0.0942
      7 C7          0.0229   -0.6994    1.1977 C.ar      1 <0>        -0.1176
      8 C8          0.0597   -4.2551   -0.0214 C.2       1 <0>        -0.2261
      9 C9          1.1300   -4.9426    0.4691 C.2       1 <0>         0.1937
     10 N1          1.1186   -6.3079    0.4484 N.am      1 <0>        -0.5269
     11 C10         0.0733   -6.9909   -0.0459 C.2       1 <0>         0.7048
     12 O1          0.1073   -8.2063   -0.0438 O.2       1 <0>        -0.5393
     13 N2         -1.0099   -6.3682   -0.5427 N.am      1 <0>        -0.6555
     14 H1         -1.7489   -6.8904   -0.8923 H         1 <0>         0.4319
     15 C11        -1.0761   -5.0203   -0.5525 C.2       1 <0>         0.5569
     16 O2         -2.0557   -4.4500   -0.9964 O.2       1 <0>        -0.5000
     17 C12         2.2708   -7.0429    0.9760 C.3       1 <0>         0.3062
     18 C13         1.8661   -7.8708    2.2222 C.3       1 <0>        -0.1912
     19 C14         3.2159   -8.0189    2.9656 C.3       1 <0>         0.0779
     20 C15         4.0810   -6.8710    2.4100 C.3       1 <0>         0.0886
     21 O3          3.2658   -6.1298    1.4868 O.3       1 <0>        -0.3548
     22 C16         4.5326   -5.9597    3.5530 C.3       1 <0>         0.1408
     23 O4          5.4274   -4.9676    3.0461 O.3       1 <0>        -0.7522
     24 P1          6.1003   -3.8372    3.9743 P.3       1 <0>         2.2106
     25 O5          4.9946   -3.0617    4.7247 O.2       1 <0>        -1.1058
     26 O6          7.0450   -4.5062    4.9975 O.3       1 <0>        -1.1058
     27 O7          6.9408   -2.8177    3.0543 O.3       1 <0>        -0.8963
     28 O8          3.8132   -9.2832    2.6708 O.3       1 <0>        -0.5528
     29 H2          1.0042    1.8801    0.0026 H         1 <0>         0.0716
     30 H3         -0.5455    1.8639   -0.8728 H         1 <0>         0.0641
     31 H4         -0.5286    1.8543    0.9071 H         1 <0>         0.0661
     32 H5         -0.0064   -0.1383   -2.1318 H         1 <0>         0.1216
     33 H6          0.0265   -2.5980   -2.1550 H         1 <0>         0.1192
     34 H7          0.0485   -2.6213    2.1304 H         1 <0>         0.1257
     35 H8          0.0244   -0.1614    2.1341 H         1 <0>         0.1260
     36 H9          1.9804   -4.4115    0.8706 H         1 <0>         0.1919
     37 H10         2.6990   -7.6862    0.2073 H         1 <0>         0.1146
     38 H11         1.1437   -7.3281    2.8319 H         1 <0>         0.0936
     39 H12         1.4733   -8.8451    1.9312 H         1 <0>         0.1085
     40 H13         3.0742   -7.9041    4.0403 H         1 <0>         0.0900
     41 H14         4.9497   -7.2785    1.8929 H         1 <0>         0.1028
     42 H15         3.6631   -5.4730    3.9948 H         1 <0>         0.0652
     43 H16         5.0412   -6.5539    4.3122 H         1 <0>         0.0749
     44 H17         7.3747   -2.1086    3.5482 H         1 <0>         0.4150
     45 H18         3.2823  -10.0429    2.9467 H         1 <0>         0.3849
@<TRIPOS>BOND
     1    1    2 1
     2    1   29 1
     3    1   30 1
     4    1   31 1
     5    2    7 ar
     6    2    3 ar
     7    3    4 ar
     8    3   32 1
     9    4    5 ar
    10    4   33 1
    11    5    6 ar
    12    5    8 1
    13    6    7 ar
    14    6   34 1
    15    7   35 1
    16    8   15 1
    17    8    9 2
    18    9   10 1
    19    9   36 1
    20   10   11 am
    21   10   17 1
    22   11   12 2
    23   11   13 am
    24   13   14 1
    25   13   15 am
    26   15   16 2
    27   17   21 1
    28   17   18 1
    29   17   37 1
    30   18   19 1
    31   18   38 1
    32   18   39 1
    33   19   20 1
    34   19   28 1
    35   19   40 1
    36   20   21 1
    37   20   22 1
    38   20   41 1
    39   22   23 1
    40   22   42 1
    41   22   43 1
    42   23   24 1
    43   24   25 2
    44   24   26 1
    45   24   27 1
    46   27   44 1
    47   28   45 1
@<TRIPOS>MOLECULE
CHEMBL1159760__4
   44    46     0     0     0
SMALL
USER_CHARGES

@<TRIPOS>ATOM
      1 C1         -0.0184    1.5028    0.0103 C.3       1 <0>        -0.1131
      2 C2          0.0021   -0.0041    0.0020 C.ar      1 <0>        -0.0856
      3 C3          0.0057   -0.6865   -1.2013 C.ar      1 <0>        -0.1231
      4 C4          0.0244   -2.0663   -1.2150 C.ar      1 <0>        -0.0867
      5 C5          0.0401   -2.7724   -0.0132 C.ar      1 <0>        -0.0158
      6 C6          0.0368   -2.0794    1.1963 C.ar      1 <0>        -0.0943
      7 C7          0.0229   -0.6994    1.1977 C.ar      1 <0>        -0.1167
      8 C8          0.0597   -4.2551   -0.0214 C.2       1 <0>        -0.2381
      9 C9          1.1300   -4.9426    0.4691 C.2       1 <0>         0.2010
     10 N1          1.1186   -6.3079    0.4484 N.am      1 <0>        -0.5326
     11 C10         0.0733   -6.9909   -0.0459 C.2       1 <0>         0.7023
     12 O1          0.1073   -8.2063   -0.0438 O.2       1 <0>        -0.5448
     13 N2         -1.0099   -6.3682   -0.5427 N.am      1 <0>        -0.6572
     14 H1         -1.7489   -6.8904   -0.8923 H         1 <0>         0.4282
     15 C11        -1.0761   -5.0203   -0.5525 C.2       1 <0>         0.5595
     16 O2         -2.0557   -4.4500   -0.9964 O.2       1 <0>        -0.5095
     17 C12         2.2708   -7.0429    0.9760 C.3       1 <0>         0.2962
     18 C13         1.8267   -7.9388    2.1522 C.3       1 <0>        -0.1855
     19 C14         3.0147   -7.7960    3.1422 C.3       1 <0>         0.0764
     20 C15         3.4353   -6.3267    2.8870 C.3       1 <0>         0.0844
     21 O3          3.2464   -6.1219    1.4778 O.3       1 <0>        -0.3372
     22 C16         4.9047   -6.1223    3.2611 C.3       1 <0>         0.1363
     23 O4          5.2417   -4.7398    3.1298 O.3       1 <0>        -0.7509
     24 P1          6.7114   -4.1620    3.4433 P.3       1 <0>         2.1264
     25 O5          7.1327   -4.5671    4.8968 O.2       1 <0>        -1.1880
     26 O6          7.7359   -4.7563    2.4178 O.3       1 <0>        -1.1859
     27 O7          6.6957   -2.6002    3.3203 O.3       1 <0>        -1.1652
     28 O8          2.5851   -7.9816    4.4924 O.3       1 <0>        -0.5419
     29 H2          1.0042    1.8801    0.0026 H         1 <0>         0.0725
     30 H3         -0.5455    1.8639   -0.8728 H         1 <0>         0.0618
     31 H4         -0.5286    1.8543    0.9071 H         1 <0>         0.0640
     32 H5         -0.0064   -0.1383   -2.1318 H         1 <0>         0.1200
     33 H6          0.0265   -2.5980   -2.1550 H         1 <0>         0.1184
     34 H7          0.0485   -2.6213    2.1304 H         1 <0>         0.1247
     35 H8          0.0244   -0.1614    2.1341 H         1 <0>         0.1246
     36 H9          1.9804   -4.4115    0.8706 H         1 <0>         0.1956
     37 H10         2.7108   -7.6550    0.1887 H         1 <0>         0.1238
     38 H11         0.9041   -7.5659    2.5970 H         1 <0>         0.0894
     39 H12         1.7126   -8.9738    1.8299 H         1 <0>         0.1028
     40 H13         3.8210   -8.4848    2.8903 H         1 <0>         0.0895
     41 H14         2.8010   -5.6473    3.4564 H         1 <0>         0.0915
     42 H15         5.0647   -6.4390    4.2917 H         1 <0>         0.0614
     43 H16         5.5344   -6.7144    2.5971 H         1 <0>         0.0438
     44 H17         2.2128   -8.8562    4.6700 H         1 <0>         0.3777
@<TRIPOS>BOND
     1    1    2 1
     2    1   29 1
     3    1   30 1
     4    1   31 1
     5    2    7 ar
     6    2    3 ar
     7    3    4 ar
     8    3   32 1
     9    4    5 ar
    10    4   33 1
    11    5    6 ar
    12    5    8 1
    13    6    7 ar
    14    6   34 1
    15    7   35 1
    16    8   15 1
    17    8    9 2
    18    9   10 1
    19    9   36 1
    20   10   11 am
    21   10   17 1
    22   11   12 2
    23   11   13 am
    24   13   14 1
    25   13   15 am
    26   15   16 2
    27   17   21 1
    28   17   18 1
    29   17   37 1
    30   18   19 1
    31   18   38 1
    32   18   39 1
    33   19   20 1
    34   19   28 1
    35   19   40 1
    36   20   21 1
    37   20   22 1
    38   20   41 1
    39   22   23 1
    40   22   42 1
    41   22   43 1
    42   23   24 1
    43   24   25 2
    44   24   26 1
    45   24   27 1
    46   28   44 1
@<TRIPOS>MOLECULE
CHEMBL1159760__5
   45    47     0     0     0
SMALL
USER_CHARGES

@<TRIPOS>ATOM
      1 C1         -0.0184    1.5028    0.0103 C.3       1 <0>        -0.1152
      2 C2          0.0021   -0.0041    0.0020 C.ar      1 <0>        -0.0828
      3 C3          0.0057   -0.6865   -1.2013 C.ar      1 <0>        -0.1214
      4 C4          0.0244   -2.0663   -1.2150 C.ar      1 <0>        -0.0853
      5 C5          0.0401   -2.7724   -0.0132 C.ar      1 <0>        -0.0197
      6 C6          0.0368   -2.0794    1.1963 C.ar      1 <0>        -0.0968
      7 C7          0.0229   -0.6994    1.1977 C.ar      1 <0>        -0.1193
      8 C8          0.0597   -4.2551   -0.0214 C.2       1 <0>        -0.2286
      9 C9          1.1300   -4.9426    0.4691 C.2       1 <0>         0.1922
     10 N1          1.1186   -6.3079    0.4484 N.am      1 <0>        -0.5360
     11 C10         0.0733   -6.9909   -0.0459 C.2       1 <0>         0.7031
     12 O1          0.1073   -8.2063   -0.0438 O.2       1 <0>        -0.5403
     13 N2         -1.0099   -6.3682   -0.5427 N.am      1 <0>        -0.6563
     14 H1         -1.7489   -6.8904   -0.8923 H         1 <0>         0.4313
     15 C11        -1.0761   -5.0203   -0.5525 C.2       1 <0>         0.5569
     16 O2         -2.0557   -4.4500   -0.9964 O.2       1 <0>        -0.5016
     17 C12         2.2708   -7.0429    0.9760 C.3       1 <0>         0.3016
     18 C13         1.8267   -7.9388    2.1522 C.3       1 <0>        -0.1876
     19 C14         3.0147   -7.7960    3.1422 C.3       1 <0>         0.0777
     20 C15         3.4353   -6.3267    2.8870 C.3       1 <0>         0.0823
     21 O3          3.2464   -6.1219    1.4778 O.3       1 <0>        -0.3441
     22 C16         4.9047   -6.1223    3.2611 C.3       1 <0>         0.1423
     23 O4          5.2417   -4.7398    3.1298 O.3       1 <0>        -0.7541
     24 P1          6.7114   -4.1620    3.4433 P.3       1 <0>         2.2111
     25 O5          7.1269   -4.5615    4.8767 O.2       1 <0>        -1.1078
     26 O6          7.7217   -4.7481    2.4320 O.3       1 <0>        -1.1048
     27 O7          6.6952   -2.5570    3.3169 O.3       1 <0>        -0.8965
     28 O8          2.5851   -7.9816    4.4924 O.3       1 <0>        -0.5446
     29 H2          1.0042    1.8801    0.0026 H         1 <0>         0.0717
     30 H3         -0.5455    1.8639   -0.8728 H         1 <0>         0.0648
     31 H4         -0.5286    1.8543    0.9071 H         1 <0>         0.0655
     32 H5         -0.0064   -0.1383   -2.1318 H         1 <0>         0.1224
     33 H6          0.0265   -2.5980   -2.1550 H         1 <0>         0.1201
     34 H7          0.0485   -2.6213    2.1304 H         1 <0>         0.1234
     35 H8          0.0244   -0.1614    2.1341 H         1 <0>         0.1242
     36 H9          1.9804   -4.4115    0.8706 H         1 <0>         0.1908
     37 H10         2.7108   -7.6550    0.1887 H         1 <0>         0.1272
     38 H11         0.9041   -7.5659    2.5970 H         1 <0>         0.0930
     39 H12         1.7126   -8.9738    1.8299 H         1 <0>         0.1084
     40 H13         3.8210   -8.4848    2.8903 H         1 <0>         0.0922
     41 H14         2.8010   -5.6473    3.4564 H         1 <0>         0.0965
     42 H15         5.0647   -6.4390    4.2917 H         1 <0>         0.0797
     43 H16         5.5344   -6.7144    2.5971 H         1 <0>         0.0640
     44 H17         7.5497   -2.1400    3.4930 H         1 <0>         0.4150
     45 H18         2.2128   -8.8562    4.6700 H         1 <0>         0.3857
@<TRIPOS>BOND
     1    1    2 1
     2    1   29 1
     3    1   30 1
     4    1   31 1
     5    2    7 ar
     6    2    3 ar
     7    3    4 ar
     8    3   32 1
     9    4    5 ar
    10    4   33 1
    11    5    6 ar
    12    5    8 1
    13    6    7 ar
    14    6   34 1
    15    7   35 1
    16    8   15 1
    17    8    9 2
    18    9   10 1
    19    9   36 1
    20   10   11 am
    21   10   17 1
    22   11   12 2
    23   11   13 am
    24   13   14 1
    25   13   15 am
    26   15   16 2
    27   17   21 1
    28   17   18 1
    29   17   37 1
    30   18   19 1
    31   18   38 1
    32   18   39 1
    33   19   20 1
    34   19   28 1
    35   19   40 1
    36   20   21 1
    37   20   22 1
    38   20   41 1
    39   22   23 1
    40   22   42 1
    41   22   43 1
    42   23   24 1
    43   24   25 2
    44   24   26 1
    45   24   27 1
    46   27   44 1
    47   28   45 1
@<TRIPOS>MOLECULE
CHEMBL1159760__6
   44    46     0     0     0
SMALL
USER_CHARGES

@<TRIPOS>ATOM
      1 C1         -0.0184    1.5028    0.0103 C.3       1 <0>        -0.1128
      2 C2          0.0021   -0.0041    0.0020 C.ar      1 <0>        -0.0853
      3 C3          0.0057   -0.6865   -1.2013 C.ar      1 <0>        -0.1250
      4 C4          0.0244   -2.0663   -1.2150 C.ar      1 <0>        -0.0878
      5 C5          0.0401   -2.7724   -0.0132 C.ar      1 <0>        -0.0185
      6 C6          0.0368   -2.0794    1.1963 C.ar      1 <0>        -0.0909
      7 C7          0.0229   -0.6994    1.1977 C.ar      1 <0>        -0.1148
      8 C8          0.0597   -4.2551   -0.0214 C.2       1 <0>        -0.2353
      9 C9          1.1300   -4.9426    0.4691 C.2       1 <0>         0.2037
     10 N1          1.1186   -6.3079    0.4484 N.am      1 <0>        -0.5224
     11 C10         0.0733   -6.9909   -0.0459 C.2       1 <0>         0.7048
     12 O1          0.1073   -8.2063   -0.0438 O.2       1 <0>        -0.5453
     13 N2         -1.0099   -6.3682   -0.5427 N.am      1 <0>        -0.6563
     14 H1         -1.7489   -6.8904   -0.8923 H         1 <0>         0.4288
     15 C11        -1.0761   -5.0203   -0.5525 C.2       1 <0>         0.5596
     16 O2         -2.0557   -4.4500   -0.9964 O.2       1 <0>        -0.5076
     17 C12         2.2708   -7.0429    0.9760 C.3       1 <0>         0.2983
     18 C13         1.8661   -7.8708    2.2222 C.3       1 <0>        -0.1920
     19 C14         3.2159   -8.0189    2.9656 C.3       1 <0>         0.0807
     20 C15         4.0810   -6.8710    2.4100 C.3       1 <0>         0.0856
     21 O3          3.2658   -6.1298    1.4868 O.3       1 <0>        -0.3469
     22 C16         4.5326   -5.9597    3.5530 C.3       1 <0>         0.1459
     23 O4          5.4274   -4.9676    3.0461 O.3       1 <0>        -0.7569
     24 P1          6.1003   -3.8372    3.9743 P.3       1 <0>         2.1301
     25 O5          4.9790   -3.0508    4.7352 O.2       1 <0>        -1.1877
     26 O6          7.0583   -4.5155    5.0118 O.3       1 <0>        -1.1894
     27 O7          6.9182   -2.8452    3.0791 O.3       1 <0>        -1.1684
     28 O8          3.0301   -7.8684    4.3745 O.3       1 <0>        -0.5363
     29 H2          1.0042    1.8801    0.0026 H         1 <0>         0.0723
     30 H3         -0.5455    1.8639   -0.8728 H         1 <0>         0.0611
     31 H4         -0.5286    1.8543    0.9071 H         1 <0>         0.0645
     32 H5         -0.0064   -0.1383   -2.1318 H         1 <0>         0.1192
     33 H6          0.0265   -2.5980   -2.1550 H         1 <0>         0.1174
     34 H7          0.0485   -2.6213    2.1304 H         1 <0>         0.1272
     35 H8          0.0244   -0.1614    2.1341 H         1 <0>         0.1264
     36 H9          1.9804   -4.4115    0.8706 H         1 <0>         0.1970
     37 H10         2.6990   -7.6862    0.2073 H         1 <0>         0.1101
     38 H11         1.1437   -7.3281    2.8319 H         1 <0>         0.0932
     39 H12         1.4733   -8.8451    1.9312 H         1 <0>         0.0998
     40 H13         3.6715   -8.9833    2.7408 H         1 <0>         0.0803
     41 H14         4.9497   -7.2785    1.8929 H         1 <0>         0.0950
     42 H15         3.6631   -5.4730    3.9948 H         1 <0>         0.0481
     43 H16         5.0412   -6.5539    4.3122 H         1 <0>         0.0580
     44 H17         2.4455   -8.5312    4.7671 H         1 <0>         0.3728
@<TRIPOS>BOND
     1    1    2 1
     2    1   29 1
     3    1   30 1
     4    1   31 1
     5    2    7 ar
     6    2    3 ar
     7    3    4 ar
     8    3   32 1
     9    4    5 ar
    10    4   33 1
    11    5    6 ar
    12    5    8 1
    13    6    7 ar
    14    6   34 1
    15    7   35 1
    16    8   15 1
    17    8    9 2
    18    9   10 1
    19    9   36 1
    20   10   11 am
    21   10   17 1
    22   11   12 2
    23   11   13 am
    24   13   14 1
    25   13   15 am
    26   15   16 2
    27   17   21 1
    28   17   18 1
    29   17   37 1
    30   18   19 1
    31   18   38 1
    32   18   39 1
    33   19   20 1
    34   19   28 1
    35   19   40 1
    36   20   21 1
    37   20   22 1
    38   20   41 1
    39   22   23 1
    40   22   42 1
    41   22   43 1
    42   23   24 1
    43   24   25 2
    44   24   26 1
    45   24   27 1
    46   28   44 1
@<TRIPOS>MOLECULE
CHEMBL1159760__7
   45    47     0     0     0
SMALL
USER_CHARGES

@<TRIPOS>ATOM
      1 C1         -0.0184    1.5028    0.0103 C.3       1 <0>        -0.1150
      2 C2          0.0021   -0.0041    0.0020 C.ar      1 <0>        -0.0825
      3 C3          0.0057   -0.6865   -1.2013 C.ar      1 <0>        -0.1231
      4 C4          0.0244   -2.0663   -1.2150 C.ar      1 <0>        -0.0863
      5 C5          0.0401   -2.7724   -0.0132 C.ar      1 <0>        -0.0224
      6 C6          0.0368   -2.0794    1.1963 C.ar      1 <0>        -0.0938
      7 C7          0.0229   -0.6994    1.1977 C.ar      1 <0>        -0.1175
      8 C8          0.0597   -4.2551   -0.0214 C.2       1 <0>        -0.2258
      9 C9          1.1300   -4.9426    0.4691 C.2       1 <0>         0.1945
     10 N1          1.1186   -6.3079    0.4484 N.am      1 <0>        -0.5258
     11 C10         0.0733   -6.9909   -0.0459 C.2       1 <0>         0.7054
     12 O1          0.1073   -8.2063   -0.0438 O.2       1 <0>        -0.5407
     13 N2         -1.0099   -6.3682   -0.5427 N.am      1 <0>        -0.6555
     14 H1         -1.7489   -6.8904   -0.8923 H         1 <0>         0.4319
     15 C11        -1.0761   -5.0203   -0.5525 C.2       1 <0>         0.5569
     16 O2         -2.0557   -4.4500   -0.9964 O.2       1 <0>        -0.4997
     17 C12         2.2708   -7.0429    0.9760 C.3       1 <0>         0.3040
     18 C13         1.8661   -7.8708    2.2222 C.3       1 <0>        -0.1944
     19 C14         3.2159   -8.0189    2.9656 C.3       1 <0>         0.0811
     20 C15         4.0810   -6.8710    2.4100 C.3       1 <0>         0.0863
     21 O3          3.2658   -6.1298    1.4868 O.3       1 <0>        -0.3544
     22 C16         4.5326   -5.9597    3.5530 C.3       1 <0>         0.1505
     23 O4          5.4274   -4.9676    3.0461 O.3       1 <0>        -0.7591
     24 P1          6.1003   -3.8372    3.9743 P.3       1 <0>         2.2116
     25 O5          4.9946   -3.0617    4.7247 O.2       1 <0>        -1.1070
     26 O6          7.0450   -4.5062    4.9975 O.3       1 <0>        -1.1075
     27 O7          6.9408   -2.8177    3.0543 O.3       1 <0>        -0.8975
     28 O8          3.0301   -7.8684    4.3745 O.3       1 <0>        -0.5441
     29 H2          1.0042    1.8801    0.0026 H         1 <0>         0.0716
     30 H3         -0.5455    1.8639   -0.8728 H         1 <0>         0.0641
     31 H4         -0.5286    1.8543    0.9071 H         1 <0>         0.0661
     32 H5         -0.0064   -0.1383   -2.1318 H         1 <0>         0.1216
     33 H6          0.0265   -2.5980   -2.1550 H         1 <0>         0.1191
     34 H7          0.0485   -2.6213    2.1304 H         1 <0>         0.1259
     35 H8          0.0244   -0.1614    2.1341 H         1 <0>         0.1261
     36 H9          1.9804   -4.4115    0.8706 H         1 <0>         0.1920
     37 H10         2.6990   -7.6862    0.2073 H         1 <0>         0.1135
     38 H11         1.1437   -7.3281    2.8319 H         1 <0>         0.0959
     39 H12         1.4733   -8.8451    1.9312 H         1 <0>         0.1055
     40 H13         3.6715   -8.9833    2.7408 H         1 <0>         0.0866
     41 H14         4.9497   -7.2785    1.8929 H         1 <0>         0.1001
     42 H15         3.6631   -5.4730    3.9948 H         1 <0>         0.0674
     43 H16         5.0412   -6.5539    4.3122 H         1 <0>         0.0774
     44 H17         7.3747   -2.1086    3.5482 H         1 <0>         0.4143
     45 H18         2.4455   -8.5312    4.7671 H         1 <0>         0.3824
@<TRIPOS>BOND
     1    1    2 1
     2    1   29 1
     3    1   30 1
     4    1   31 1
     5    2    7 ar
     6    2    3 ar
     7    3    4 ar
     8    3   32 1
     9    4    5 ar
    10    4   33 1
    11    5    6 ar
    12    5    8 1
    13    6    7 ar
    14    6   34 1
    15    7   35 1
    16    8   15 1
    17    8    9 2
    18    9   10 1
    19    9   36 1
    20   10   11 am
    21   10   17 1
    22   11   12 2
    23   11   13 am
    24   13   14 1
    25   13   15 am
    26   15   16 2
    27   17   21 1
    28   17   18 1
    29   17   37 1
    30   18   19 1
    31   18   38 1
    32   18   39 1
    33   19   20 1
    34   19   28 1
    35   19   40 1
    36   20   21 1
    37   20   22 1
    38   20   41 1
    39   22   23 1
    40   22   42 1
    41   22   43 1
    42   23   24 1
    43   24   25 2
    44   24   26 1
    45   24   27 1
    46   27   44 1
    47   28   45 1
@<TRIPOS>MOLECULE
CHEMBL1159760__8
   44    46     0     0     0
SMALL
USER_CHARGES

@<TRIPOS>ATOM
      1 C1         -0.0184    1.5028    0.0103 C.3       1 <0>        -0.1130
      2 C2          0.0021   -0.0041    0.0020 C.ar      1 <0>        -0.0896
      3 C3          0.0057   -0.6865   -1.2013 C.ar      1 <0>        -0.1194
      4 C4          0.0244   -2.0663   -1.2150 C.ar      1 <0>        -0.0843
      5 C5          0.0401   -2.7724   -0.0132 C.ar      1 <0>        -0.0081
      6 C6          0.0368   -2.0794    1.1963 C.ar      1 <0>        -0.1029
      7 C7          0.0229   -0.6994    1.1977 C.ar      1 <0>        -0.1230
      8 C8          0.0597   -4.2551   -0.0214 C.2       1 <0>        -0.2408
      9 C9          1.1300   -4.9426    0.4691 C.2       1 <0>         0.1976
     10 N1          1.1186   -6.3079    0.4484 N.am      1 <0>        -0.5209
     11 C10         0.0733   -6.9909   -0.0459 C.2       1 <0>         0.6847
     12 O1          0.1073   -8.2063   -0.0438 O.2       1 <0>        -0.4827
     13 N2         -1.0099   -6.3682   -0.5427 N.am      1 <0>        -0.6577
     14 H1         -1.7489   -6.8904   -0.8923 H         1 <0>         0.4314
     15 C11        -1.0761   -5.0203   -0.5525 C.2       1 <0>         0.5614
     16 O2         -2.0557   -4.4500   -0.9964 O.2       1 <0>        -0.5137
     17 C12         2.2708   -7.0429    0.9760 C.3       1 <0>         0.2896
     18 C13         1.8470   -7.9170    2.1771 C.3       1 <0>        -0.1930
     19 C14         2.6874   -9.2040    2.0198 C.3       1 <0>         0.0837
     20 C15         3.5195   -8.9552    0.7423 C.3       1 <0>         0.0868
     21 O3          2.7625   -7.9798   -0.0070 O.3       1 <0>        -0.3329
     22 C16         3.6625  -10.2497   -0.0607 C.3       1 <0>         0.1483
     23 O4          4.5299  -10.0262   -1.1741 O.3       1 <0>        -0.7585
     24 P1          4.9063  -11.1754   -2.2370 P.3       1 <0>         2.1317
     25 O5          5.4952  -12.4142   -1.4801 O.2       1 <0>        -1.1908
     26 O6          3.6188  -11.6050   -3.0194 O.3       1 <0>        -1.1872
     27 O7          5.9711  -10.6251   -3.2459 O.3       1 <0>        -1.1700
     28 O8          1.8369  -10.3397    1.8501 O.3       1 <0>        -0.5297
     29 H2          1.0042    1.8801    0.0026 H         1 <0>         0.0687
     30 H3         -0.5455    1.8639   -0.8728 H         1 <0>         0.0644
     31 H4         -0.5286    1.8543    0.9071 H         1 <0>         0.0635
     32 H5         -0.0064   -0.1383   -2.1318 H         1 <0>         0.1219
     33 H6          0.0265   -2.5980   -2.1550 H         1 <0>         0.1235
     34 H7          0.0485   -2.6213    2.1304 H         1 <0>         0.1227
     35 H8          0.0244   -0.1614    2.1341 H         1 <0>         0.1207
     36 H9          1.9804   -4.4115    0.8706 H         1 <0>         0.1786
     37 H10         3.0602   -6.3504    1.2683 H         1 <0>         0.1130
     38 H11         2.0856   -7.4175    3.1161 H         1 <0>         0.0866
     39 H12         0.7828   -8.1471    2.1254 H         1 <0>         0.0971
     40 H13         3.3414   -9.3407    2.8810 H         1 <0>         0.0764
     41 H14         4.5009   -8.5573    1.0002 H         1 <0>         0.0908
     42 H15         4.0825  -11.0280    0.5765 H         1 <0>         0.0531
     43 H16         2.6829  -10.5641   -0.4206 H         1 <0>         0.0549
     44 H17         1.2487  -10.5061    2.5994 H         1 <0>         0.3671
@<TRIPOS>BOND
     1    1    2 1
     2    1   29 1
     3    1   30 1
     4    1   31 1
     5    2    7 ar
     6    2    3 ar
     7    3    4 ar
     8    3   32 1
     9    4    5 ar
    10    4   33 1
    11    5    6 ar
    12    5    8 1
    13    6    7 ar
    14    6   34 1
    15    7   35 1
    16    8   15 1
    17    8    9 2
    18    9   10 1
    19    9   36 1
    20   10   11 am
    21   10   17 1
    22   11   12 2
    23   11   13 am
    24   13   14 1
    25   13   15 am
    26   15   16 2
    27   17   21 1
    28   17   18 1
    29   17   37 1
    30   18   19 1
    31   18   38 1
    32   18   39 1
    33   19   20 1
    34   19   28 1
    35   19   40 1
    36   20   21 1
    37   20   22 1
    38   20   41 1
    39   22   23 1
    40   22   42 1
    41   22   43 1
    42   23   24 1
    43   24   25 2
    44   24   26 1
    45   24   27 1
    46   28   44 1
@<TRIPOS>MOLECULE
CHEMBL1159760__9
   45    47     0     0     0
SMALL
USER_CHARGES

@<TRIPOS>ATOM
      1 C1         -0.0184    1.5028    0.0103 C.3       1 <0>        -0.1156
      2 C2          0.0021   -0.0041    0.0020 C.ar      1 <0>        -0.0841
      3 C3          0.0057   -0.6865   -1.2013 C.ar      1 <0>        -0.1194
      4 C4          0.0244   -2.0663   -1.2150 C.ar      1 <0>        -0.0840
      5 C5          0.0401   -2.7724   -0.0132 C.ar      1 <0>        -0.0174
      6 C6          0.0368   -2.0794    1.1963 C.ar      1 <0>        -0.1011
      7 C7          0.0229   -0.6994    1.1977 C.ar      1 <0>        -0.1221
      8 C8          0.0597   -4.2551   -0.0214 C.2       1 <0>        -0.2250
      9 C9          1.1300   -4.9426    0.4691 C.2       1 <0>         0.1867
     10 N1          1.1186   -6.3079    0.4484 N.am      1 <0>        -0.5239
     11 C10         0.0733   -6.9909   -0.0459 C.2       1 <0>         0.6887
     12 O1          0.1073   -8.2063   -0.0438 O.2       1 <0>        -0.4927
     13 N2         -1.0099   -6.3682   -0.5427 N.am      1 <0>        -0.6580
     14 H1         -1.7489   -6.8904   -0.8923 H         1 <0>         0.4326
     15 C11        -1.0761   -5.0203   -0.5525 C.2       1 <0>         0.5579
     16 O2         -2.0557   -4.4500   -0.9964 O.2       1 <0>        -0.5043
     17 C12         2.2708   -7.0429    0.9760 C.3       1 <0>         0.2959
     18 C13         1.8470   -7.9170    2.1771 C.3       1 <0>        -0.1954
     19 C14         2.6874   -9.2040    2.0198 C.3       1 <0>         0.0848
     20 C15         3.5195   -8.9552    0.7423 C.3       1 <0>         0.0863
     21 O3          2.7625   -7.9798   -0.0070 O.3       1 <0>        -0.3401
     22 C16         3.6625  -10.2497   -0.0607 C.3       1 <0>         0.1531
     23 O4          4.5299  -10.0262   -1.1741 O.3       1 <0>        -0.7604
     24 P1          4.9063  -11.1754   -2.2370 P.3       1 <0>         2.2121
     25 O5          5.4871  -12.3970   -1.4906 O.2       1 <0>        -1.1096
     26 O6          3.6366  -11.5991   -3.0086 O.3       1 <0>        -1.1053
     27 O7          6.0006  -10.6099   -3.2738 O.3       1 <0>        -0.8979
     28 O8          1.8369  -10.3397    1.8501 O.3       1 <0>        -0.5368
     29 H2          1.0042    1.8801    0.0026 H         1 <0>         0.0702
     30 H3         -0.5455    1.8639   -0.8728 H         1 <0>         0.0660
     31 H4         -0.5286    1.8543    0.9071 H         1 <0>         0.0655
     32 H5         -0.0064   -0.1383   -2.1318 H         1 <0>         0.1233
     33 H6          0.0265   -2.5980   -2.1550 H         1 <0>         0.1226
     34 H7          0.0485   -2.6213    2.1304 H         1 <0>         0.1230
     35 H8          0.0244   -0.1614    2.1341 H         1 <0>         0.1228
     36 H9          1.9804   -4.4115    0.8706 H         1 <0>         0.1796
     37 H10         3.0602   -6.3504    1.2683 H         1 <0>         0.1159
     38 H11         2.0856   -7.4175    3.1161 H         1 <0>         0.0918
     39 H12         0.7828   -8.1471    2.1254 H         1 <0>         0.1009
     40 H13         3.3414   -9.3407    2.8810 H         1 <0>         0.0814
     41 H14         4.5009   -8.5573    1.0002 H         1 <0>         0.0952
     42 H15         4.0825  -11.0280    0.5765 H         1 <0>         0.0720
     43 H16         2.6829  -10.5641   -0.4206 H         1 <0>         0.0743
     44 H17         6.2747  -11.2503   -3.9445 H         1 <0>         0.4140
     45 H18         1.2487  -10.5061    2.5994 H         1 <0>         0.3764
@<TRIPOS>BOND
     1    1    2 1
     2    1   29 1
     3    1   30 1
     4    1   31 1
     5    2    7 ar
     6    2    3 ar
     7    3    4 ar
     8    3   32 1
     9    4    5 ar
    10    4   33 1
    11    5    6 ar
    12    5    8 1
    13    6    7 ar
    14    6   34 1
    15    7   35 1
    16    8   15 1
    17    8    9 2
    18    9   10 1
    19    9   36 1
    20   10   11 am
    21   10   17 1
    22   11   12 2
    23   11   13 am
    24   13   14 1
    25   13   15 am
    26   15   16 2
    27   17   21 1
    28   17   18 1
    29   17   37 1
    30   18   19 1
    31   18   38 1
    32   18   39 1
    33   19   20 1
    34   19   28 1
    35   19   40 1
    36   20   21 1
    37   20   22 1
    38   20   41 1
    39   22   23 1
    40   22   42 1
    41   22   43 1
    42   23   24 1
    43   24   25 2
    44   24   26 1
    45   24   27 1
    46   27   44 1
    47   28   45 1
@<TRIPOS>MOLECULE
CHEMBL1159760__10
   44    46     0     0     0
SMALL
USER_CHARGES

@<TRIPOS>ATOM
      1 C1         -0.0184    1.5028    0.0103 C.3       1 <0>        -0.1132
      2 C2          0.0021   -0.0041    0.0020 C.ar      1 <0>        -0.0887
      3 C3          0.0057   -0.6865   -1.2013 C.ar      1 <0>        -0.1194
      4 C4          0.0244   -2.0663   -1.2150 C.ar      1 <0>        -0.0839
      5 C5          0.0401   -2.7724   -0.0132 C.ar      1 <0>        -0.0097
      6 C6          0.0368   -2.0794    1.1963 C.ar      1 <0>        -0.1022
      7 C7          0.0229   -0.6994    1.1977 C.ar      1 <0>        -0.1227
      8 C8          0.0597   -4.2551   -0.0214 C.2       1 <0>        -0.2398
      9 C9          1.1300   -4.9426    0.4691 C.2       1 <0>         0.1993
     10 N1          1.1186   -6.3079    0.4484 N.am      1 <0>        -0.5216
     11 C10         0.0733   -6.9909   -0.0459 C.2       1 <0>         0.6924
     12 O1          0.1073   -8.2063   -0.0438 O.2       1 <0>        -0.5050
     13 N2         -1.0099   -6.3682   -0.5427 N.am      1 <0>        -0.6578
     14 H1         -1.7489   -6.8904   -0.8923 H         1 <0>         0.4300
     15 C11        -1.0761   -5.0203   -0.5525 C.2       1 <0>         0.5616
     16 O2         -2.0557   -4.4500   -0.9964 O.2       1 <0>        -0.5125
     17 C12         2.2708   -7.0429    0.9760 C.3       1 <0>         0.2934
     18 C13         1.8458   -7.9127    2.1858 C.3       1 <0>        -0.1974
     19 C14         2.9395   -9.0149    2.1551 C.3       1 <0>         0.0827
     20 C15         3.2018   -9.1742    0.6421 C.3       1 <0>         0.0941
     21 O3          2.7587   -7.9743   -0.0027 O.3       1 <0>        -0.3371
     22 C16         4.6980   -9.3752    0.3930 C.3       1 <0>         0.1262
     23 O4          4.9189   -9.6375   -0.9943 O.3       1 <0>        -0.7486
     24 P1          6.3811   -9.8990   -1.6152 P.3       1 <0>         2.1279
     25 O5          7.3242   -8.7017   -1.2525 O.2       1 <0>        -1.1885
     26 O6          6.9699  -11.2251   -1.0244 O.3       1 <0>        -1.1877
     27 O7          6.2721  -10.0245   -3.1731 O.3       1 <0>        -1.1670
     28 O8          2.4492  -10.2338    2.7173 O.3       1 <0>        -0.5422
     29 H2          1.0042    1.8801    0.0026 H         1 <0>         0.0694
     30 H3         -0.5455    1.8639   -0.8728 H         1 <0>         0.0642
     31 H4         -0.5286    1.8543    0.9071 H         1 <0>         0.0635
     32 H5         -0.0064   -0.1383   -2.1318 H         1 <0>         0.1220
     33 H6          0.0265   -2.5980   -2.1550 H         1 <0>         0.1232
     34 H7          0.0485   -2.6213    2.1304 H         1 <0>         0.1229
     35 H8          0.0244   -0.1614    2.1341 H         1 <0>         0.1211
     36 H9          1.9804   -4.4115    0.8706 H         1 <0>         0.1814
     37 H10         3.0607   -6.3497    1.2654 H         1 <0>         0.1223
     38 H11         1.8886   -7.3426    3.1138 H         1 <0>         0.0899
     39 H12         0.8542   -8.3390    2.0341 H         1 <0>         0.1047
     40 H13         3.8398   -8.6826    2.6720 H         1 <0>         0.0853
     41 H14         2.6438  -10.0281    0.2579 H         1 <0>         0.1021
     42 H15         5.2388   -8.4743    0.6830 H         1 <0>         0.0398
     43 H16         5.0545  -10.2190    0.9836 H         1 <0>         0.0512
     44 H17         2.1868  -10.1613    3.6452 H         1 <0>         0.3744
@<TRIPOS>BOND
     1    1    2 1
     2    1   29 1
     3    1   30 1
     4    1   31 1
     5    2    7 ar
     6    2    3 ar
     7    3    4 ar
     8    3   32 1
     9    4    5 ar
    10    4   33 1
    11    5    6 ar
    12    5    8 1
    13    6    7 ar
    14    6   34 1
    15    7   35 1
    16    8   15 1
    17    8    9 2
    18    9   10 1
    19    9   36 1
    20   10   11 am
    21   10   17 1
    22   11   12 2
    23   11   13 am
    24   13   14 1
    25   13   15 am
    26   15   16 2
    27   17   21 1
    28   17   18 1
    29   17   37 1
    30   18   19 1
    31   18   38 1
    32   18   39 1
    33   19   20 1
    34   19   28 1
    35   19   40 1
    36   20   21 1
    37   20   22 1
    38   20   41 1
    39   22   23 1
    40   22   42 1
    41   22   43 1
    42   23   24 1
    43   24   25 2
    44   24   26 1
    45   24   27 1
    46   28   44 1
@<TRIPOS>MOLECULE
CHEMBL1159760__11
   45    47     0     0     0
SMALL
USER_CHARGES

@<TRIPOS>ATOM
      1 C1         -0.0184    1.5028    0.0103 C.3       1 <0>        -0.1158
      2 C2          0.0021   -0.0041    0.0020 C.ar      1 <0>        -0.0834
      3 C3          0.0057   -0.6865   -1.2013 C.ar      1 <0>        -0.1195
      4 C4          0.0244   -2.0663   -1.2150 C.ar      1 <0>        -0.0837
      5 C5          0.0401   -2.7724   -0.0132 C.ar      1 <0>        -0.0188
      6 C6          0.0368   -2.0794    1.1963 C.ar      1 <0>        -0.1005
      7 C7          0.0229   -0.6994    1.1977 C.ar      1 <0>        -0.1218
      8 C8          0.0597   -4.2551   -0.0214 C.2       1 <0>        -0.2241
      9 C9          1.1300   -4.9426    0.4691 C.2       1 <0>         0.1879
     10 N1          1.1186   -6.3079    0.4484 N.am      1 <0>        -0.5247
     11 C10         0.0733   -6.9909   -0.0459 C.2       1 <0>         0.6951
     12 O1          0.1073   -8.2063   -0.0438 O.2       1 <0>        -0.5117
     13 N2         -1.0099   -6.3682   -0.5427 N.am      1 <0>        -0.6580
     14 H1         -1.7489   -6.8904   -0.8923 H         1 <0>         0.4315
     15 C11        -1.0761   -5.0203   -0.5525 C.2       1 <0>         0.5580
     16 O2         -2.0557   -4.4500   -0.9964 O.2       1 <0>        -0.5032
     17 C12         2.2708   -7.0429    0.9760 C.3       1 <0>         0.2980
     18 C13         1.8458   -7.9127    2.1858 C.3       1 <0>        -0.1994
     19 C14         2.9395   -9.0149    2.1551 C.3       1 <0>         0.0841
     20 C15         3.2018   -9.1742    0.6421 C.3       1 <0>         0.0926
     21 O3          2.7587   -7.9743   -0.0027 O.3       1 <0>        -0.3441
     22 C16         4.6980   -9.3752    0.3930 C.3       1 <0>         0.1312
     23 O4          4.9189   -9.6375   -0.9943 O.3       1 <0>        -0.7513
     24 P1          6.3811   -9.8990   -1.6152 P.3       1 <0>         2.2118
     25 O5          7.3112   -8.7182   -1.2576 O.2       1 <0>        -1.1087
     26 O6          6.9618  -11.2068   -1.0325 O.3       1 <0>        -1.1068
     27 O7          6.2691  -10.0280   -3.2161 O.3       1 <0>        -0.8963
     28 O8          2.4492  -10.2338    2.7173 O.3       1 <0>        -0.5437
     29 H2          1.0042    1.8801    0.0026 H         1 <0>         0.0708
     30 H3         -0.5455    1.8639   -0.8728 H         1 <0>         0.0658
     31 H4         -0.5286    1.8543    0.9071 H         1 <0>         0.0655
     32 H5         -0.0064   -0.1383   -2.1318 H         1 <0>         0.1234
     33 H6          0.0265   -2.5980   -2.1550 H         1 <0>         0.1222
     34 H7          0.0485   -2.6213    2.1304 H         1 <0>         0.1232
     35 H8          0.0244   -0.1614    2.1341 H         1 <0>         0.1231
     36 H9          1.9804   -4.4115    0.8706 H         1 <0>         0.1820
     37 H10         3.0607   -6.3497    1.2654 H         1 <0>         0.1243
     38 H11         1.8886   -7.3426    3.1138 H         1 <0>         0.0955
     39 H12         0.8542   -8.3390    2.0341 H         1 <0>         0.1082
     40 H13         3.8398   -8.6826    2.6720 H         1 <0>         0.0871
     41 H14         2.6438  -10.0281    0.2579 H         1 <0>         0.1074
     42 H15         5.2388   -8.4743    0.6830 H         1 <0>         0.0593
     43 H16         5.0545  -10.2190    0.9836 H         1 <0>         0.0709
     44 H17         7.1144  -10.1866   -3.6581 H         1 <0>         0.4142
     45 H18         2.1868  -10.1613    3.6452 H         1 <0>         0.3822
@<TRIPOS>BOND
     1    1    2 1
     2    1   29 1
     3    1   30 1
     4    1   31 1
     5    2    7 ar
     6    2    3 ar
     7    3    4 ar
     8    3   32 1
     9    4    5 ar
    10    4   33 1
    11    5    6 ar
    12    5    8 1
    13    6    7 ar
    14    6   34 1
    15    7   35 1
    16    8   15 1
    17    8    9 2
    18    9   10 1
    19    9   36 1
    20   10   11 am
    21   10   17 1
    22   11   12 2
    23   11   13 am
    24   13   14 1
    25   13   15 am
    26   15   16 2
    27   17   21 1
    28   17   18 1
    29   17   37 1
    30   18   19 1
    31   18   38 1
    32   18   39 1
    33   19   20 1
    34   19   28 1
    35   19   40 1
    36   20   21 1
    37   20   22 1
    38   20   41 1
    39   22   23 1
    40   22   42 1
    41   22   43 1
    42   23   24 1
    43   24   25 2
    44   24   26 1
    45   24   27 1
    46   27   44 1
    47   28   45 1
@<TRIPOS>MOLECULE
CHEMBL1159760__12
   44    46     0     0     0
SMALL
USER_CHARGES

@<TRIPOS>ATOM
      1 C1         -0.0184    1.5028    0.0103 C.3       1 <0>        -0.1131
      2 C2          0.0021   -0.0041    0.0020 C.ar      1 <0>        -0.0891
      3 C3          0.0057   -0.6865   -1.2013 C.ar      1 <0>        -0.1195
      4 C4          0.0244   -2.0663   -1.2150 C.ar      1 <0>        -0.0841
      5 C5          0.0401   -2.7724   -0.0132 C.ar      1 <0>        -0.0092
      6 C6          0.0368   -2.0794    1.1963 C.ar      1 <0>        -0.1025
      7 C7          0.0229   -0.6994    1.1977 C.ar      1 <0>        -0.1229
      8 C8          0.0597   -4.2551   -0.0214 C.2       1 <0>        -0.2388
      9 C9          1.1300   -4.9426    0.4691 C.2       1 <0>         0.1975
     10 N1          1.1186   -6.3079    0.4484 N.am      1 <0>        -0.5212
     11 C10         0.0733   -6.9909   -0.0459 C.2       1 <0>         0.6900
     12 O1          0.1073   -8.2063   -0.0438 O.2       1 <0>        -0.4954
     13 N2         -1.0099   -6.3682   -0.5427 N.am      1 <0>        -0.6571
     14 H1         -1.7489   -6.8904   -0.8923 H         1 <0>         0.4318
     15 C11        -1.0761   -5.0203   -0.5525 C.2       1 <0>         0.5614
     16 O2         -2.0557   -4.4500   -0.9964 O.2       1 <0>        -0.5119
     17 C12         2.2708   -7.0429    0.9760 C.3       1 <0>         0.2908
     18 C13         1.8470   -7.9170    2.1771 C.3       1 <0>        -0.1889
     19 C14         2.6874   -9.2040    2.0198 C.3       1 <0>         0.0804
     20 C15         3.5195   -8.9552    0.7423 C.3       1 <0>         0.0917
     21 O3          2.7625   -7.9798   -0.0070 O.3       1 <0>        -0.3328
     22 C16         3.6625  -10.2497   -0.0607 C.3       1 <0>         0.1400
     23 O4          4.5299  -10.0262   -1.1741 O.3       1 <0>        -0.7519
     24 P1          4.9063  -11.1754   -2.2370 P.3       1 <0>         2.1281
     25 O5          5.4952  -12.4142   -1.4801 O.2       1 <0>        -1.1887
     26 O6          3.6188  -11.6050   -3.0194 O.3       1 <0>        -1.1859
     27 O7          5.9711  -10.6251   -3.2459 O.3       1 <0>        -1.1672
     28 O8          3.5448   -9.3833    3.1489 O.3       1 <0>        -0.5511
     29 H2          1.0042    1.8801    0.0026 H         1 <0>         0.0689
     30 H3         -0.5455    1.8639   -0.8728 H         1 <0>         0.0644
     31 H4         -0.5286    1.8543    0.9071 H         1 <0>         0.0636
     32 H5         -0.0064   -0.1383   -2.1318 H         1 <0>         0.1221
     33 H6          0.0265   -2.5980   -2.1550 H         1 <0>         0.1236
     34 H7          0.0485   -2.6213    2.1304 H         1 <0>         0.1229
     35 H8          0.0244   -0.1614    2.1341 H         1 <0>         0.1210
     36 H9          1.9804   -4.4115    0.8706 H         1 <0>         0.1796
     37 H10         3.0602   -6.3504    1.2683 H         1 <0>         0.1157
     38 H11         2.0856   -7.4175    3.1161 H         1 <0>         0.0912
     39 H12         0.7828   -8.1471    2.1254 H         1 <0>         0.0925
     40 H13         2.0386  -10.0703    1.8904 H         1 <0>         0.0853
     41 H14         4.5009   -8.5573    1.0002 H         1 <0>         0.0906
     42 H15         4.0825  -11.0280    0.5765 H         1 <0>         0.0577
     43 H16         2.6829  -10.5641   -0.4206 H         1 <0>         0.0461
     44 H17         3.0746   -9.4836    3.9879 H         1 <0>         0.3742
@<TRIPOS>BOND
     1    1    2 1
     2    1   29 1
     3    1   30 1
     4    1   31 1
     5    2    7 ar
     6    2    3 ar
     7    3    4 ar
     8    3   32 1
     9    4    5 ar
    10    4   33 1
    11    5    6 ar
    12    5    8 1
    13    6    7 ar
    14    6   34 1
    15    7   35 1
    16    8   15 1
    17    8    9 2
    18    9   10 1
    19    9   36 1
    20   10   11 am
    21   10   17 1
    22   11   12 2
    23   11   13 am
    24   13   14 1
    25   13   15 am
    26   15   16 2
    27   17   21 1
    28   17   18 1
    29   17   37 1
    30   18   19 1
    31   18   38 1
    32   18   39 1
    33   19   20 1
    34   19   28 1
    35   19   40 1
    36   20   21 1
    37   20   22 1
    38   20   41 1
    39   22   23 1
    40   22   42 1
    41   22   43 1
    42   23   24 1
    43   24   25 2
    44   24   26 1
    45   24   27 1
    46   28   44 1
@<TRIPOS>MOLECULE
CHEMBL1159760__13
   45    47     0     0     0
SMALL
USER_CHARGES

@<TRIPOS>ATOM
      1 C1         -0.0184    1.5028    0.0103 C.3       1 <0>        -0.1157
      2 C2          0.0021   -0.0041    0.0020 C.ar      1 <0>        -0.0836
      3 C3          0.0057   -0.6865   -1.2013 C.ar      1 <0>        -0.1195
      4 C4          0.0244   -2.0663   -1.2150 C.ar      1 <0>        -0.0837
      5 C5          0.0401   -2.7724   -0.0132 C.ar      1 <0>        -0.0185
      6 C6          0.0368   -2.0794    1.1963 C.ar      1 <0>        -0.1007
      7 C7          0.0229   -0.6994    1.1977 C.ar      1 <0>        -0.1220
      8 C8          0.0597   -4.2551   -0.0214 C.2       1 <0>        -0.2230
      9 C9          1.1300   -4.9426    0.4691 C.2       1 <0>         0.1866
     10 N1          1.1186   -6.3079    0.4484 N.am      1 <0>        -0.5240
     11 C10         0.0733   -6.9909   -0.0459 C.2       1 <0>         0.6938
     12 O1          0.1073   -8.2063   -0.0438 O.2       1 <0>        -0.5053
     13 N2         -1.0099   -6.3682   -0.5427 N.am      1 <0>        -0.6573
     14 H1         -1.7489   -6.8904   -0.8923 H         1 <0>         0.4330
     15 C11        -1.0761   -5.0203   -0.5525 C.2       1 <0>         0.5579
     16 O2         -2.0557   -4.4500   -0.9964 O.2       1 <0>        -0.5025
     17 C12         2.2708   -7.0429    0.9760 C.3       1 <0>         0.2972
     18 C13         1.8470   -7.9170    2.1771 C.3       1 <0>        -0.1913
     19 C14         2.6874   -9.2040    2.0198 C.3       1 <0>         0.0820
     20 C15         3.5195   -8.9552    0.7423 C.3       1 <0>         0.0896
     21 O3          2.7625   -7.9798   -0.0070 O.3       1 <0>        -0.3400
     22 C16         3.6625  -10.2497   -0.0607 C.3       1 <0>         0.1458
     23 O4          4.5299  -10.0262   -1.1741 O.3       1 <0>        -0.7547
     24 P1          4.9063  -11.1754   -2.2370 P.3       1 <0>         2.2112
     25 O5          5.4871  -12.3970   -1.4906 O.2       1 <0>        -1.1081
     26 O6          3.6366  -11.5991   -3.0086 O.3       1 <0>        -1.1046
     27 O7          6.0006  -10.6099   -3.2738 O.3       1 <0>        -0.8969
     28 O8          3.5448   -9.3833    3.1489 O.3       1 <0>        -0.5531
     29 H2          1.0042    1.8801    0.0026 H         1 <0>         0.0704
     30 H3         -0.5455    1.8639   -0.8728 H         1 <0>         0.0660
     31 H4         -0.5286    1.8543    0.9071 H         1 <0>         0.0656
     32 H5         -0.0064   -0.1383   -2.1318 H         1 <0>         0.1234
     33 H6          0.0265   -2.5980   -2.1550 H         1 <0>         0.1226
     34 H7          0.0485   -2.6213    2.1304 H         1 <0>         0.1232
     35 H8          0.0244   -0.1614    2.1341 H         1 <0>         0.1230
     36 H9          1.9804   -4.4115    0.8706 H         1 <0>         0.1806
     37 H10         3.0602   -6.3504    1.2683 H         1 <0>         0.1185
     38 H11         2.0856   -7.4175    3.1161 H         1 <0>         0.0962
     39 H12         0.7828   -8.1471    2.1254 H         1 <0>         0.0966
     40 H13         2.0386  -10.0703    1.8904 H         1 <0>         0.0873
     41 H14         4.5009   -8.5573    1.0002 H         1 <0>         0.0954
     42 H15         4.0825  -11.0280    0.5765 H         1 <0>         0.0762
     43 H16         2.6829  -10.5641   -0.4206 H         1 <0>         0.0661
     44 H17         6.2747  -11.2503   -3.9445 H         1 <0>         0.4145
     45 H18         3.0746   -9.4836    3.9879 H         1 <0>         0.3821
@<TRIPOS>BOND
     1    1    2 1
     2    1   29 1
     3    1   30 1
     4    1   31 1
     5    2    7 ar
     6    2    3 ar
     7    3    4 ar
     8    3   32 1
     9    4    5 ar
    10    4   33 1
    11    5    6 ar
    12    5    8 1
    13    6    7 ar
    14    6   34 1
    15    7   35 1
    16    8   15 1
    17    8    9 2
    18    9   10 1
    19    9   36 1
    20   10   11 am
    21   10   17 1
    22   11   12 2
    23   11   13 am
    24   13   14 1
    25   13   15 am
    26   15   16 2
    27   17   21 1
    28   17   18 1
    29   17   37 1
    30   18   19 1
    31   18   38 1
    32   18   39 1
    33   19   20 1
    34   19   28 1
    35   19   40 1
    36   20   21 1
    37   20   22 1
    38   20   41 1
    39   22   23 1
    40   22   42 1
    41   22   43 1
    42   23   24 1
    43   24   25 2
    44   24   26 1
    45   24   27 1
    46   27   44 1
    47   28   45 1
@<TRIPOS>MOLECULE
CHEMBL1159760__14
   44    46     0     0     0
SMALL
USER_CHARGES

@<TRIPOS>ATOM
      1 C1         -0.0184    1.5028    0.0103 C.3       1 <0>        -0.1131
      2 C2          0.0021   -0.0041    0.0020 C.ar      1 <0>        -0.0889
      3 C3          0.0057   -0.6865   -1.2013 C.ar      1 <0>        -0.1194
      4 C4          0.0244   -2.0663   -1.2150 C.ar      1 <0>        -0.0840
      5 C5          0.0401   -2.7724   -0.0132 C.ar      1 <0>        -0.0095
      6 C6          0.0368   -2.0794    1.1963 C.ar      1 <0>        -0.1022
      7 C7          0.0229   -0.6994    1.1977 C.ar      1 <0>        -0.1226
      8 C8          0.0597   -4.2551   -0.0214 C.2       1 <0>        -0.2408
      9 C9          1.1300   -4.9426    0.4691 C.2       1 <0>         0.2005
     10 N1          1.1186   -6.3079    0.4484 N.am      1 <0>        -0.5221
     11 C10         0.0733   -6.9909   -0.0459 C.2       1 <0>         0.6941
     12 O1          0.1073   -8.2063   -0.0438 O.2       1 <0>        -0.5103
     13 N2         -1.0099   -6.3682   -0.5427 N.am      1 <0>        -0.6580
     14 H1         -1.7489   -6.8904   -0.8923 H         1 <0>         0.4297
     15 C11        -1.0761   -5.0203   -0.5525 C.2       1 <0>         0.5616
     16 O2         -2.0557   -4.4500   -0.9964 O.2       1 <0>        -0.5127
     17 C12         2.2708   -7.0429    0.9760 C.3       1 <0>         0.2967
     18 C13         1.8458   -7.9127    2.1858 C.3       1 <0>        -0.1937
     19 C14         2.9395   -9.0149    2.1551 C.3       1 <0>         0.0806
     20 C15         3.2018   -9.1742    0.6421 C.3       1 <0>         0.0960
     21 O3          2.7587   -7.9743   -0.0027 O.3       1 <0>        -0.3410
     22 C16         4.6980   -9.3752    0.3930 C.3       1 <0>         0.1342
     23 O4          4.9189   -9.6375   -0.9943 O.3       1 <0>        -0.7552
     24 P1          6.3811   -9.8990   -1.6152 P.3       1 <0>         2.1316
     25 O5          7.3242   -8.7017   -1.2525 O.2       1 <0>        -1.1895
     26 O6          6.9699  -11.2251   -1.0244 O.3       1 <0>        -1.1901
     27 O7          6.2721  -10.0245   -3.1731 O.3       1 <0>        -1.1698
     28 O8          4.1198   -8.5792    2.8327 O.3       1 <0>        -0.5393
     29 H2          1.0042    1.8801    0.0026 H         1 <0>         0.0694
     30 H3         -0.5455    1.8639   -0.8728 H         1 <0>         0.0641
     31 H4         -0.5286    1.8543    0.9071 H         1 <0>         0.0634
     32 H5         -0.0064   -0.1383   -2.1318 H         1 <0>         0.1220
     33 H6          0.0265   -2.5980   -2.1550 H         1 <0>         0.1231
     34 H7          0.0485   -2.6213    2.1304 H         1 <0>         0.1229
     35 H8          0.0244   -0.1614    2.1341 H         1 <0>         0.1211
     36 H9          1.9804   -4.4115    0.8706 H         1 <0>         0.1811
     37 H10         3.0607   -6.3497    1.2654 H         1 <0>         0.1223
     38 H11         1.8886   -7.3426    3.1138 H         1 <0>         0.0909
     39 H12         0.8542   -8.3390    2.0341 H         1 <0>         0.1023
     40 H13         2.5655   -9.9446    2.5839 H         1 <0>         0.0859
     41 H14         2.6438  -10.0281    0.2579 H         1 <0>         0.1012
     42 H15         5.2388   -8.4743    0.6830 H         1 <0>         0.0485
     43 H16         5.0545  -10.2190    0.9836 H         1 <0>         0.0474
     44 H17         3.9849   -8.3806    3.7694 H         1 <0>         0.3713
@<TRIPOS>BOND
     1    1    2 1
     2    1   29 1
     3    1   30 1
     4    1   31 1
     5    2    7 ar
     6    2    3 ar
     7    3    4 ar
     8    3   32 1
     9    4    5 ar
    10    4   33 1
    11    5    6 ar
    12    5    8 1
    13    6    7 ar
    14    6   34 1
    15    7   35 1
    16    8   15 1
    17    8    9 2
    18    9   10 1
    19    9   36 1
    20   10   11 am
    21   10   17 1
    22   11   12 2
    23   11   13 am
    24   13   14 1
    25   13   15 am
    26   15   16 2
    27   17   21 1
    28   17   18 1
    29   17   37 1
    30   18   19 1
    31   18   38 1
    32   18   39 1
    33   19   20 1
    34   19   28 1
    35   19   40 1
    36   20   21 1
    37   20   22 1
    38   20   41 1
    39   22   23 1
    40   22   42 1
    41   22   43 1
    42   23   24 1
    43   24   25 2
    44   24   26 1
    45   24   27 1
    46   28   44 1
@<TRIPOS>MOLECULE
CHEMBL1159760__15
   45    47     0     0     0
SMALL
USER_CHARGES

@<TRIPOS>ATOM
      1 C1         -0.0184    1.5028    0.0103 C.3       1 <0>        -0.1157
      2 C2          0.0021   -0.0041    0.0020 C.ar      1 <0>        -0.0835
      3 C3          0.0057   -0.6865   -1.2013 C.ar      1 <0>        -0.1195
      4 C4          0.0244   -2.0663   -1.2150 C.ar      1 <0>        -0.0838
      5 C5          0.0401   -2.7724   -0.0132 C.ar      1 <0>        -0.0186
      6 C6          0.0368   -2.0794    1.1963 C.ar      1 <0>        -0.1005
      7 C7          0.0229   -0.6994    1.1977 C.ar      1 <0>        -0.1218
      8 C8          0.0597   -4.2551   -0.0214 C.2       1 <0>        -0.2251
      9 C9          1.1300   -4.9426    0.4691 C.2       1 <0>         0.1891
     10 N1          1.1186   -6.3079    0.4484 N.am      1 <0>        -0.5252
     11 C10         0.0733   -6.9909   -0.0459 C.2       1 <0>         0.6968
     12 O1          0.1073   -8.2063   -0.0438 O.2       1 <0>        -0.5170
     13 N2         -1.0099   -6.3682   -0.5427 N.am      1 <0>        -0.6581
     14 H1         -1.7489   -6.8904   -0.8923 H         1 <0>         0.4312
     15 C11        -1.0761   -5.0203   -0.5525 C.2       1 <0>         0.5580
     16 O2         -2.0557   -4.4500   -0.9964 O.2       1 <0>        -0.5033
     17 C12         2.2708   -7.0429    0.9760 C.3       1 <0>         0.3014
     18 C13         1.8458   -7.9127    2.1858 C.3       1 <0>        -0.1954
     19 C14         2.9395   -9.0149    2.1551 C.3       1 <0>         0.0812
     20 C15         3.2018   -9.1742    0.6421 C.3       1 <0>         0.0965
     21 O3          2.7587   -7.9743   -0.0027 O.3       1 <0>        -0.3481
     22 C16         4.6980   -9.3752    0.3930 C.3       1 <0>         0.1383
     23 O4          4.9189   -9.6375   -0.9943 O.3       1 <0>        -0.7571
     24 P1          6.3811   -9.8990   -1.6152 P.3       1 <0>         2.2128
     25 O5          7.3112   -8.7182   -1.2576 O.2       1 <0>        -1.1091
     26 O6          6.9618  -11.2068   -1.0325 O.3       1 <0>        -1.1085
     27 O7          6.2691  -10.0280   -3.2161 O.3       1 <0>        -0.8973
     28 O8          4.1198   -8.5792    2.8327 O.3       1 <0>        -0.5467
     29 H2          1.0042    1.8801    0.0026 H         1 <0>         0.0708
     30 H3         -0.5455    1.8639   -0.8728 H         1 <0>         0.0658
     31 H4         -0.5286    1.8543    0.9071 H         1 <0>         0.0655
     32 H5         -0.0064   -0.1383   -2.1318 H         1 <0>         0.1233
     33 H6          0.0265   -2.5980   -2.1550 H         1 <0>         0.1221
     34 H7          0.0485   -2.6213    2.1304 H         1 <0>         0.1232
     35 H8          0.0244   -0.1614    2.1341 H         1 <0>         0.1231
     36 H9          1.9804   -4.4115    0.8706 H         1 <0>         0.1817
     37 H10         3.0607   -6.3497    1.2654 H         1 <0>         0.1242
     38 H11         1.8886   -7.3426    3.1138 H         1 <0>         0.0963
     39 H12         0.8542   -8.3390    2.0341 H         1 <0>         0.1059
     40 H13         2.5655   -9.9446    2.5839 H         1 <0>         0.0912
     41 H14         2.6438  -10.0281    0.2579 H         1 <0>         0.1063
     42 H15         5.2388   -8.4743    0.6830 H         1 <0>         0.0675
     43 H16         5.0545  -10.2190    0.9836 H         1 <0>         0.0675
     44 H17         7.1144  -10.1866   -3.6581 H         1 <0>         0.4137
     45 H18         3.9849   -8.3806    3.7694 H         1 <0>         0.3807
@<TRIPOS>BOND
     1    1    2 1
     2    1   29 1
     3    1   30 1
     4    1   31 1
     5    2    7 ar
     6    2    3 ar
     7    3    4 ar
     8    3   32 1
     9    4    5 ar
    10    4   33 1
    11    5    6 ar
    12    5    8 1
    13    6    7 ar
    14    6   34 1
    15    7   35 1
    16    8   15 1
    17    8    9 2
    18    9   10 1
    19    9   36 1
    20   10   11 am
    21   10   17 1
    22   11   12 2
    23   11   13 am
    24   13   14 1
    25   13   15 am
    26   15   16 2
    27   17   21 1
    28   17   18 1
    29   17   37 1
    30   18   19 1
    31   18   38 1
    32   18   39 1
    33   19   20 1
    34   19   28 1
    35   19   40 1
    36   20   21 1
    37   20   22 1
    38   20   41 1
    39   22   23 1
    40   22   42 1
    41   22   43 1
    42   23   24 1
    43   24   25 2
    44   24   26 1
    45   24   27 1
    46   27   44 1
    47   28   45 1
@<TRIPOS>MOLECULE
CHEMBL324739
   57    60     0     0     0
SMALL
USER_CHARGES

@<TRIPOS>ATOM
      1 C1         -0.0184    1.5028    0.0103 C.3       1 <0>        -0.1072
      2 C2          0.0021   -0.0041    0.0020 C.2       1 <0>         0.3863
      3 N1          0.0048   -0.6148   -1.1450 N.2       1 <0>        -0.5236
      4 C3          0.0227   -1.9611   -1.2330 C.ar      1 <0>         0.1680
      5 C4          0.0260   -2.6149   -2.4783 C.ar      1 <0>        -0.1122
      6 C5          0.0444   -3.9657   -2.5660 C.ar      1 <0>        -0.0580
      7 C6          0.0606   -4.7762   -1.4121 C.ar      1 <0>        -0.0421
      8 C7          0.0797   -6.1761   -1.5078 C.ar      1 <0>        -0.1290
      9 C8          0.0954   -6.9314   -0.3736 C.ar      1 <0>        -0.0279
     10 C9          0.0929   -6.3351    0.8837 C.ar      1 <0>        -0.5927
     11 C10         0.0745   -4.9773    1.0131 C.ar      1 <0>        -0.0100
     12 C11         0.0581   -4.1723   -0.1305 C.ar      1 <0>        -0.0208
     13 C12         0.0387   -2.7179   -0.0472 C.ar      1 <0>        -0.1807
     14 C13         0.0353   -2.0080    1.2317 C.2       1 <0>         0.5355
     15 N2          0.0222   -0.6546    1.1925 N.am      1 <0>        -0.6442
     16 O1          0.0487   -2.6106    2.2903 O.2       1 <0>        -0.4857
     17 S1          0.1130   -7.3465    2.3264 S.o2      1 <0>         2.5897
     18 O2         -0.4439   -6.5675    3.3762 O.2       1 <0>        -1.0215
     19 O3         -0.4225   -8.6067    1.9464 O.2       1 <0>        -1.0273
     20 N3          1.7003   -7.6060    2.7203 N.2       1 <0>        -1.0835
     21 C14         2.0239   -8.3801    3.8291 C.ar      1 <0>         0.2926
     22 C15         1.0122   -8.9410    4.6038 C.ar      1 <0>        -0.2780
     23 C16         1.3292   -9.7075    5.7018 C.ar      1 <0>        -0.0061
     24 C17         2.6687   -9.9229    6.0390 C.ar      1 <0>        -0.2217
     25 C18         3.6822   -9.3583    5.2590 C.ar      1 <0>        -0.0398
     26 C19         3.3589   -8.5974    4.1590 C.ar      1 <0>        -0.1897
     27 C20         3.0119  -10.7437    7.2157 C.2       1 <0>         0.5629
     28 O4          2.1293  -11.2338    7.8934 O.2       1 <0>        -0.5763
     29 N4          4.3038  -10.9504    7.5395 N.am      1 <0>        -0.6897
     30 C21         4.6447  -11.7656    8.7080 C.3       1 <0>         0.0770
     31 H1          3.9183  -12.5715    8.8132 H         1 <0>         0.0725
     32 C22         6.0427  -12.3598    8.5251 C.3       1 <0>        -0.0796
     33 C23         6.0334  -13.3309    7.3429 C.3       1 <0>        -0.1777
     34 C24         7.4104  -13.9161    7.1627 C.2       1 <0>         0.4932
     35 O5          8.3153  -13.5870    7.9106 O.co2     1 <0>        -0.7019
     36 O6          7.6195  -14.7188    6.2691 O.co2     1 <0>        -0.7228
     37 C25         4.6226  -10.9048    9.9447 C.2       1 <0>         0.4987
     38 O7          4.3332  -11.3944   11.0232 O.co2     1 <0>        -0.7124
     39 O8          4.8941   -9.7187    9.8669 O.co2     1 <0>        -0.6977
     40 H2          1.0042    1.8801    0.0026 H         1 <0>         0.0966
     41 H3         -0.5455    1.8639   -0.8728 H         1 <0>         0.1008
     42 H4         -0.5286    1.8543    0.9071 H         1 <0>         0.0849
     43 H5          0.0132   -2.0267   -3.3839 H         1 <0>         0.1373
     44 H6          0.0464   -4.4323   -3.5400 H         1 <0>         0.1373
     45 H7          0.0816   -6.6531   -2.4767 H         1 <0>         0.1344
     46 H8          0.1097   -8.0085   -0.4517 H         1 <0>         0.1423
     47 H9          0.0724   -4.5259    1.9943 H         1 <0>         0.1694
     48 H10        -0.0224   -8.7740    4.3430 H         1 <0>         0.0967
     49 H11         0.5440  -10.1421    6.3026 H         1 <0>         0.1147
     50 H12         4.7180   -9.5226    5.5172 H         1 <0>         0.1138
     51 H13         4.1415   -8.1649    3.5533 H         1 <0>         0.1144
     52 H14         5.0079  -10.5594    6.9988 H         1 <0>         0.3899
     53 H15         6.7556  -11.5583    8.3314 H         1 <0>         0.0581
     54 H16         6.3323  -12.8926    9.4308 H         1 <0>         0.0662
     55 H17         5.3205  -14.1324    7.5366 H         1 <0>         0.0513
     56 H18         5.7437  -12.7981    6.4372 H         1 <0>         0.0564
     57 H19         0.0232   -0.1477    2.0195 H         1 <0>         0.4188
@<TRIPOS>BOND
     1    1    2 1
     2    1   40 1
     3    1   41 1
     4    1   42 1
     5    2   15 1
     6    2    3 2
     7    3    4 1
     8    4   13 ar
     9    4    5 ar
    10    5    6 ar
    11    5   43 1
    12    6    7 ar
    13    6   44 1
    14    7   12 ar
    15    7    8 ar
    16    8    9 ar
    17    8   45 1
    18    9   10 ar
    19    9   46 1
    20   10   11 ar
    21   10   17 1
    22   11   12 ar
    23   11   47 1
    24   12   13 ar
    25   13   14 1
    26   14   15 am
    27   14   16 2
    28   15   57 1
    29   17   18 2
    30   17   19 2
    31   17   20 1
    32   20   21 1
    33   21   26 ar
    34   21   22 ar
    35   22   23 ar
    36   22   48 1
    37   23   24 ar
    38   23   49 1
    39   24   25 ar
    40   24   27 1
    41   25   26 ar
    42   25   50 1
    43   26   51 1
    44   27   28 2
    45   27   29 am
    46   29   30 1
    47   29   52 1
    48   30   31 1
    49   30   32 1
    50   30   37 1
    51   32   33 1
    52   32   53 1
    53   32   54 1
    54   33   34 1
    55   33   55 1
    56   33   56 1
    57   34   35 2
    58   34   36 1
    59   37   38 2
    60   37   39 1
@<TRIPOS>MOLECULE
CHEMBL324739__1
   58    61     0     0     0
SMALL
USER_CHARGES

@<TRIPOS>ATOM
      1 C1          1.1030  -14.2443    9.4139 C.3       1 <0>        -0.1109
      2 C2          0.8898  -12.9367    8.6957 C.2       1 <0>         0.3940
      3 N1          0.6633  -11.8724    9.4060 N.2       1 <0>        -0.5185
      4 C3          0.4629  -10.6665    8.8349 C.ar      1 <0>         0.1845
      5 C4          0.2187   -9.5189    9.6105 C.ar      1 <0>        -0.0983
      6 C5          0.0182   -8.3091    9.0371 C.ar      1 <0>        -0.0574
      7 C6          0.0449   -8.1470    7.6364 C.ar      1 <0>        -0.0229
      8 C7         -0.1634   -6.8911    7.0463 C.ar      1 <0>        -0.1055
      9 C8         -0.1310   -6.7676    5.6895 C.ar      1 <0>        -0.0352
     10 C9          0.1064   -7.8710    4.8757 C.ar      1 <0>        -0.6586
     11 C10         0.3131   -9.1063    5.4160 C.ar      1 <0>         0.0013
     12 C11         0.2864   -9.2685    6.8050 C.ar      1 <0>        -0.0217
     13 C12         0.5015  -10.5657    7.4322 C.ar      1 <0>        -0.1943
     14 C13         0.7581  -11.7775    6.6541 C.2       1 <0>         0.5452
     15 N2          0.9493  -12.9291    7.3403 N.am      1 <0>        -0.6422
     16 O1          0.8029  -11.7507    5.4371 O.2       1 <0>        -0.5078
     17 S1          0.1400   -7.6702    3.1255 S.o2      1 <0>         2.6879
     18 O2         -0.2873   -8.9048    2.5667 O.2       1 <0>        -0.9546
     19 O3         -0.5140   -6.4402    2.8452 O.2       1 <0>        -0.9436
     20 N3          1.7245   -7.4747    2.6854 N.pl3     1 <0>        -1.0560
     21 C14         2.4323   -6.3573    3.1140 C.ar      1 <0>         0.1212
     22 C15         2.1924   -5.1167    2.5295 C.ar      1 <0>        -0.1109
     23 C16         2.8913   -4.0090    2.9515 C.ar      1 <0>        -0.0584
     24 C17         3.8430   -4.1304    3.9682 C.ar      1 <0>        -0.0949
     25 C18         4.0817   -5.3774    4.5531 C.ar      1 <0>        -0.0803
     26 C19         3.3755   -6.4804    4.1306 C.ar      1 <0>        -0.1157
     27 C20         4.5944   -2.9449    4.4227 C.2       1 <0>         0.5417
     28 O4          4.3861   -1.8609    3.9128 O.2       1 <0>        -0.5481
     29 N4          5.5117   -3.0635    5.4030 N.am      1 <0>        -0.6737
     30 C21         6.2578   -1.8863    5.8542 C.3       1 <0>         0.0731
     31 H1          5.6126   -1.0088    5.8116 H         1 <0>         0.0792
     32 C22         6.7301   -2.1026    7.2934 C.3       1 <0>        -0.0827
     33 C23         5.5162   -2.1923    8.2204 C.3       1 <0>        -0.1771
     34 C24         5.9814   -2.4054    9.6379 C.2       1 <0>         0.4912
     35 O5          7.1733   -2.4787    9.8839 O.co2     1 <0>        -0.6974
     36 O6          5.1658   -2.5045   10.5387 O.co2     1 <0>        -0.7195
     37 C25         7.4523   -1.6754    4.9599 C.2       1 <0>         0.4985
     38 O7          7.8820   -0.5500    4.7720 O.co2     1 <0>        -0.7000
     39 O8          7.9889   -2.6301    4.4243 O.co2     1 <0>        -0.6985
     40 H2          2.1634  -14.3700    9.6325 H         1 <0>         0.1007
     41 H3          0.5376  -14.2434   10.3458 H         1 <0>         0.1051
     42 H4          0.7623  -15.0652    8.7829 H         1 <0>         0.0865
     43 H5          0.1903   -9.6047   10.6867 H         1 <0>         0.1462
     44 H6         -0.1665   -7.4502    9.6653 H         1 <0>         0.1478
     45 H7         -0.3492   -6.0256    7.6650 H         1 <0>         0.1454
     46 H8         -0.2922   -5.7992    5.2393 H         1 <0>         0.1467
     47 H9          0.4960   -9.9554    4.7742 H         1 <0>         0.1680
     48 H10         2.1588   -8.1398    2.1286 H         1 <0>         0.4248
     49 H11         1.4572   -5.0237    1.7439 H         1 <0>         0.1374
     50 H12         2.7049   -3.0470    2.4975 H         1 <0>         0.1436
     51 H13         4.8166   -5.4744    5.3385 H         1 <0>         0.1362
     52 H14         3.5560   -7.4432    4.5853 H         1 <0>         0.1300
     53 H15         5.6778   -3.9283    5.8097 H         1 <0>         0.3915
     54 H16         7.3019   -3.0286    7.3528 H         1 <0>         0.0601
     55 H17         7.3595   -1.2667    7.5987 H         1 <0>         0.0732
     56 H18         4.9444   -1.2662    8.1610 H         1 <0>         0.0531
     57 H19         4.8868   -3.0282    7.9150 H         1 <0>         0.0506
     58 H20         1.1258  -13.7533    6.8602 H         1 <0>         0.4202
@<TRIPOS>BOND
     1    1    2 1
     2    1   40 1
     3    1   41 1
     4    1   42 1
     5    2   15 1
     6    2    3 2
     7    3    4 1
     8    4   13 ar
     9    4    5 ar
    10    5    6 ar
    11    5   43 1
    12    6    7 ar
    13    6   44 1
    14    7   12 ar
    15    7    8 ar
    16    8    9 ar
    17    8   45 1
    18    9   10 ar
    19    9   46 1
    20   10   11 ar
    21   10   17 1
    22   11   12 ar
    23   11   47 1
    24   12   13 ar
    25   13   14 1
    26   14   15 am
    27   14   16 2
    28   15   58 1
    29   17   18 2
    30   17   19 2
    31   17   20 1
    32   20   21 1
    33   20   48 1
    34   21   26 ar
    35   21   22 ar
    36   22   23 ar
    37   22   49 1
    38   23   24 ar
    39   23   50 1
    40   24   25 ar
    41   24   27 1
    42   25   26 ar
    43   25   51 1
    44   26   52 1
    45   27   28 2
    46   27   29 am
    47   29   30 1
    48   29   53 1
    49   30   31 1
    50   30   32 1
    51   30   37 1
    52   32   33 1
    53   32   54 1
    54   32   55 1
    55   33   34 1
    56   33   56 1
    57   33   57 1
    58   34   35 2
    59   34   36 1
    60   37   38 2
    61   37   39 1
@<TRIPOS>MOLECULE
CHEMBL324739__2
   57    60     0     0     0
SMALL
USER_CHARGES

@<TRIPOS>ATOM
      1 C1         -0.0184    1.5028    0.0103 C.3       1 <0>        -0.1151
      2 C2          0.0021   -0.0041    0.0020 C.2       1 <0>         0.4266
      3 N1         -1.1729   -0.6578    0.0043 N.pl3     1 <0>        -0.6194
      4 C3         -1.2093   -2.0353   -0.0026 C.ar      1 <0>         0.1694
      5 C4         -2.4177   -2.7400   -0.0005 C.ar      1 <0>        -0.1568
      6 C5         -2.4452   -4.0958   -0.0074 C.ar      1 <0>        -0.0398
      7 C6         -1.2552   -4.8506   -0.0169 C.ar      1 <0>        -0.0533
      8 C7         -1.2833   -6.2540   -0.0241 C.ar      1 <0>        -0.1288
      9 C8         -0.1140   -6.9534   -0.0336 C.ar      1 <0>        -0.0282
     10 C9          1.1130   -6.2969   -0.0359 C.ar      1 <0>        -0.5891
     11 C10         1.1769   -4.9345   -0.0287 C.ar      1 <0>        -0.0073
     12 C11        -0.0042   -4.1854   -0.0198 C.ar      1 <0>        -0.0120
     13 C12         0.0072   -2.7290   -0.0124 C.ar      1 <0>        -0.1835
     14 C13         1.2508   -1.9516   -0.0148 C.2       1 <0>         0.5183
     15 N2          1.1582   -0.6068   -0.0123 N.2       1 <0>        -0.5818
     16 O1          2.3374   -2.5059   -0.0232 O.2       1 <0>        -0.4565
     17 S1          2.6029   -7.2376   -0.0477 S.o2      1 <0>         2.5881
     18 O2          3.6137   -6.4042    0.5028 O.2       1 <0>        -1.0186
     19 O3          2.2840   -8.5102    0.4981 O.2       1 <0>        -1.0275
     20 N3          3.0096   -7.4908   -1.6328 N.2       1 <0>        -1.0834
     21 C14         4.1546   -8.2130   -1.9500 C.ar      1 <0>         0.2919
     22 C15         4.9551   -8.7275   -0.9337 C.ar      1 <0>        -0.2775
     23 C16         6.0889   -9.4427   -1.2444 C.ar      1 <0>        -0.0064
     24 C17         6.4367   -9.6525   -2.5820 C.ar      1 <0>        -0.2191
     25 C18         5.6308   -9.1346   -3.6002 C.ar      1 <0>        -0.0407
     26 C19         4.4952   -8.4251   -3.2831 C.ar      1 <0>        -0.1897
     27 C20         7.6518  -10.4184   -2.9185 C.2       1 <0>         0.5698
     28 O4          8.3520  -10.8679   -2.0319 O.2       1 <0>        -0.5779
     29 N4          7.9857  -10.6198   -4.2086 N.am      1 <0>        -0.6901
     30 C21         9.1924  -11.3803   -4.5427 C.3       1 <0>         0.0759
     31 H1          9.3361  -12.1742   -3.8098 H         1 <0>         0.0725
     32 C22         9.0390  -11.9940   -5.9358 C.3       1 <0>        -0.0775
     33 C23         7.9050  -13.0210   -5.9187 C.3       1 <0>        -0.1783
     34 C24         7.7540  -13.6255   -7.2908 C.2       1 <0>         0.4930
     35 O5          8.4854  -13.2681   -8.1984 O.co2     1 <0>        -0.7014
     36 O6          6.9002  -14.4721   -7.4934 O.co2     1 <0>        -0.7238
     37 C25        10.3861  -10.4606   -4.5277 C.2       1 <0>         0.4948
     38 O7         10.2423   -9.2793   -4.2624 O.co2     1 <0>        -0.6924
     39 O8         11.4958  -10.8978   -4.7807 O.co2     1 <0>        -0.7131
     40 H2          1.0042    1.8801    0.0026 H         1 <0>         0.1076
     41 H3         -0.5455    1.8639   -0.8728 H         1 <0>         0.0925
     42 H4         -0.5286    1.8543    0.9071 H         1 <0>         0.0916
     43 H5         -3.3486   -2.1925    0.0071 H         1 <0>         0.1338
     44 H6         -3.3968   -4.6066   -0.0052 H         1 <0>         0.1387
     45 H7         -2.2280   -6.7773   -0.0218 H         1 <0>         0.1338
     46 H8         -0.1399   -8.0331   -0.0391 H         1 <0>         0.1429
     47 H9          2.1351   -4.4363   -0.0306 H         1 <0>         0.1727
     48 H10         4.6861   -8.5648    0.0995 H         1 <0>         0.0965
     49 H11         6.7097   -9.8413   -0.4556 H         1 <0>         0.1145
     50 H12         5.8970   -9.2947   -4.6346 H         1 <0>         0.1128
     51 H13         3.8696   -8.0287   -4.0693 H         1 <0>         0.1138
     52 H14         7.4271  -10.2611   -4.9159 H         1 <0>         0.3876
     53 H15         8.8071  -11.2087   -6.6553 H         1 <0>         0.0528
     54 H16         9.9695  -12.4849   -6.2211 H         1 <0>         0.0728
     55 H17         8.1370  -13.8063   -5.1992 H         1 <0>         0.0507
     56 H18         6.9746  -12.5302   -5.6334 H         1 <0>         0.0554
     57 H19        -2.0025   -0.1552    0.0111 H         1 <0>         0.4180
@<TRIPOS>BOND
     1    1    2 1
     2    1   40 1
     3    1   41 1
     4    1   42 1
     5    2   15 2
     6    2    3 1
     7    3    4 1
     8    3   57 1
     9    4   13 ar
    10    4    5 ar
    11    5    6 ar
    12    5   43 1
    13    6    7 ar
    14    6   44 1
    15    7   12 ar
    16    7    8 ar
    17    8    9 ar
    18    8   45 1
    19    9   10 ar
    20    9   46 1
    21   10   11 ar
    22   10   17 1
    23   11   12 ar
    24   11   47 1
    25   12   13 ar
    26   13   14 1
    27   14   15 1
    28   14   16 2
    29   17   18 2
    30   17   19 2
    31   17   20 1
    32   20   21 1
    33   21   26 ar
    34   21   22 ar
    35   22   23 ar
    36   22   48 1
    37   23   24 ar
    38   23   49 1
    39   24   25 ar
    40   24   27 1
    41   25   26 ar
    42   25   50 1
    43   26   51 1
    44   27   28 2
    45   27   29 am
    46   29   30 1
    47   29   52 1
    48   30   31 1
    49   30   32 1
    50   30   37 1
    51   32   33 1
    52   32   53 1
    53   32   54 1
    54   33   34 1
    55   33   55 1
    56   33   56 1
    57   34   35 2
    58   34   36 1
    59   37   38 2
    60   37   39 1
@<TRIPOS>MOLECULE
CHEMBL1094274
   54    56     0     0     0
SMALL
USER_CHARGES

@<TRIPOS>ATOM
      1 C1         -0.0184    1.5028    0.0103 C.3       1 <0>        -0.1133
      2 C2          0.0021   -0.0041    0.0020 C.2       1 <0>         0.3986
      3 N1         -1.1851   -0.6647    0.0043 N.am      1 <0>        -0.6544
      4 H1         -2.0147   -0.1621    0.0111 H         1 <0>         0.4198
      5 C3         -1.2207   -2.0176   -0.0033 C.2       1 <0>         0.5445
      6 O1         -2.2772   -2.6224   -0.0022 O.2       1 <0>        -0.4883
      7 C4          0.0664   -2.7286   -0.0135 C.ar      1 <0>        -0.1960
      8 C5          0.1399   -4.1200   -0.0215 C.ar      1 <0>        -0.0177
      9 C6          1.3728   -4.7345   -0.0304 C.ar      1 <0>        -0.1363
     10 C7          2.5384   -3.9794   -0.0316 C.ar      1 <0>        -0.0563
     11 C8          2.4876   -2.6037   -0.0234 C.ar      1 <0>        -0.1139
     12 C9          1.2497   -1.9575   -0.0147 C.ar      1 <0>         0.1606
     13 N2          1.1533   -0.6043   -0.0122 N.2       1 <0>        -0.5263
     14 C10         1.4575   -6.2391   -0.0385 C.3       1 <0>         0.1638
     15 N3          1.4784   -6.7196   -1.4223 N.pl3     1 <0>        -0.5683
     16 C11         2.7556   -6.8886   -2.1198 C.3       1 <0>         0.1026
     17 C12         3.2789   -8.3077   -1.8890 C.3       1 <0>         0.0405
     18 F1          4.4985   -8.4690   -2.5551 F         1 <0>        -0.2136
     19 C13         0.2894   -7.0145   -2.0718 C.2       1 <0>         0.0330
     20 C14         0.0972   -7.4796   -3.3586 C.2       1 <0>        -0.0760
     21 N4         -1.1175   -7.6967   -3.7827 N.2       1 <0>        -0.4087
     22 C15        -2.1329   -7.4624   -2.9596 C.2       1 <0>         0.0015
     23 S1         -1.2870   -6.9040   -1.4907 S.3       1 <0>         0.1880
     24 C16        -3.5718   -7.6250   -3.1943 C.2       1 <0>         0.6065
     25 O2         -4.3663   -7.3571   -2.3122 O.2       1 <0>        -0.5465
     26 N5         -4.0138   -8.0712   -4.3868 N.am      1 <0>        -0.6532
     27 C17        -5.4508   -8.2337   -4.6212 C.3       1 <0>         0.0727
     28 H2         -5.9958   -7.4511   -4.0933 H         1 <0>         0.0809
     29 C18        -5.7376   -8.1323   -6.1206 C.3       1 <0>        -0.0799
     30 C19        -5.4048   -6.7211   -6.6092 C.3       1 <0>        -0.1793
     31 C20        -5.6873   -6.6213   -8.0862 C.2       1 <0>         0.4920
     32 O3         -6.1152   -7.5891   -8.6918 O.co2     1 <0>        -0.6973
     33 O4         -5.4880   -5.5727   -8.6754 O.co2     1 <0>        -0.7210
     34 C21        -5.8929   -9.5826   -4.1152 C.2       1 <0>         0.4969
     35 O5         -5.0828  -10.3382   -3.6060 O.co2     1 <0>        -0.6951
     36 O6         -7.0608   -9.9183   -4.2150 O.co2     1 <0>        -0.6983
     37 H3          1.0042    1.8801    0.0026 H         1 <0>         0.1034
     38 H4         -0.5455    1.8639   -0.8728 H         1 <0>         0.0941
     39 H5         -0.5286    1.8543    0.9071 H         1 <0>         0.0926
     40 H6         -0.7632   -4.7124   -0.0202 H         1 <0>         0.1425
     41 H7          3.4966   -4.4776   -0.0386 H         1 <0>         0.1331
     42 H8          3.4007   -2.0270   -0.0244 H         1 <0>         0.1398
     43 H9          2.3689   -6.5545    0.4695 H         1 <0>         0.0981
     44 H10         0.5917   -6.6545    0.4773 H         1 <0>         0.0915
     45 H11         2.6111   -6.7237   -3.1875 H         1 <0>         0.0917
     46 H12         3.4776   -6.1681   -1.7354 H         1 <0>         0.0903
     47 H13         3.4234   -8.4725   -0.8213 H         1 <0>         0.0765
     48 H14         2.5569   -9.0281   -2.2735 H         1 <0>         0.0830
     49 H15         0.9425   -7.6610   -4.0060 H         1 <0>         0.1587
     50 H16        -3.3806   -8.2847   -5.0898 H         1 <0>         0.4003
     51 H17        -5.1251   -8.8566   -6.6575 H         1 <0>         0.0569
     52 H18        -6.7916   -8.3411   -6.3038 H         1 <0>         0.0809
     53 H19        -6.0174   -5.9968   -6.0724 H         1 <0>         0.0523
     54 H20        -4.3508   -6.5123   -6.4260 H         1 <0>         0.0515
@<TRIPOS>BOND
     1    1    2 1
     2    1   37 1
     3    1   38 1
     4    1   39 1
     5    2   13 2
     6    2    3 1
     7    3    4 1
     8    3    5 am
     9    5    6 2
    10    5    7 1
    11    7   12 ar
    12    7    8 ar
    13    8    9 ar
    14    8   40 1
    15    9   10 ar
    16    9   14 1
    17   10   11 ar
    18   10   41 1
    19   11   12 ar
    20   11   42 1
    21   12   13 1
    22   14   15 1
    23   14   43 1
    24   14   44 1
    25   15   16 1
    26   15   19 1
    27   16   17 1
    28   16   45 1
    29   16   46 1
    30   17   18 1
    31   17   47 1
    32   17   48 1
    33   19   23 1
    34   19   20 2
    35   20   21 1
    36   20   49 1
    37   21   22 2
    38   22   23 1
    39   22   24 1
    40   24   25 2
    41   24   26 am
    42   26   27 1
    43   26   50 1
    44   27   28 1
    45   27   29 1
    46   27   34 1
    47   29   30 1
    48   29   51 1
    49   29   52 1
    50   30   31 1
    51   30   53 1
    52   30   54 1
    53   31   32 2
    54   31   33 1
    55   34   35 2
    56   34   36 1
@<TRIPOS>MOLECULE
CHEMBL320775
   32    34     0     0     0
SMALL
USER_CHARGES

@<TRIPOS>ATOM
      1 C1         -0.0184    1.5028    0.0103 C.3       1 <0>        -0.1229
      2 C2          0.0021   -0.0041    0.0020 C.ar      1 <0>        -0.0611
      3 C3          0.0057   -0.6850   -1.2045 C.ar      1 <0>        -0.0721
      4 C4          0.0247   -2.0628   -1.2410 C.ar      1 <0>        -0.0941
      5 C5          0.0406   -2.7905   -0.0494 C.ar      1 <0>         0.1974
      6 C6          0.0370   -2.1008    1.1848 C.ar      1 <0>        -0.1852
      7 C7          0.0229   -0.6991    1.2027 C.ar      1 <0>        -0.0772
      8 S1          0.0250    0.1713    2.7347 S.3       1 <0>         0.0555
      9 C8         -1.6840    0.3580    3.1212 C.ar      1 <0>        -0.0462
     10 C9         -2.6692   -0.1493    2.2735 C.ar      1 <0>        -0.1851
     11 C10        -3.9953    0.0175    2.6124 C.ar      1 <0>         0.1183
     12 N1         -4.3364    0.6474    3.7213 N.ar      1 <0>        -0.4940
     13 C11        -3.4345    1.1415    4.5490 C.ar      1 <0>         0.1179
     14 C12        -2.0872    1.0119    4.2858 C.ar      1 <0>        -0.1579
     15 C13         0.0535   -2.8895    2.4195 C.2       1 <0>         0.5557
     16 N2          0.0713   -4.2374    2.3022 N.am      1 <0>        -0.6669
     17 C14         0.0735   -4.8265    1.0713 C.2       1 <0>         0.6406
     18 N3          0.0591   -4.1451   -0.0466 N.2       1 <0>        -0.5881
     19 N4          0.0923   -6.1968    1.0020 N.pl3     1 <0>        -0.8238
     20 O1          0.0516   -2.3514    3.5119 O.2       1 <0>        -0.4728
     21 H1          1.0042    1.8801    0.0026 H         1 <0>         0.0819
     22 H2         -0.5455    1.8639   -0.8728 H         1 <0>         0.0733
     23 H3         -0.5286    1.8543    0.9071 H         1 <0>         0.0772
     24 H4         -0.0069   -0.1283   -2.1298 H         1 <0>         0.1416
     25 H5          0.0269   -2.5787   -2.1898 H         1 <0>         0.1450
     26 H6         -2.3970   -0.6650    1.3644 H         1 <0>         0.1282
     27 H7         -4.7647   -0.3719    1.9623 H         1 <0>         0.1557
     28 H8         -3.7560    1.6503    5.4457 H         1 <0>         0.1610
     29 H9         -1.3545    1.4145    4.9696 H         1 <0>         0.1396
     30 H10         0.1036   -6.7235    1.8165 H         1 <0>         0.4140
     31 H11         0.0943   -6.6387    0.1385 H         1 <0>         0.4292
     32 H12         0.0828   -4.7894    3.0997 H         1 <0>         0.4155
@<TRIPOS>BOND
     1    1    2 1
     2    1   21 1
     3    1   22 1
     4    1   23 1
     5    2    7 ar
     6    2    3 ar
     7    3    4 ar
     8    3   24 1
     9    4    5 ar
    10    4   25 1
    11    5   18 1
    12    5    6 ar
    13    6    7 ar
    14    6   15 1
    15    7    8 1
    16    8    9 1
    17    9   14 ar
    18    9   10 ar
    19   10   11 ar
    20   10   26 1
    21   11   12 ar
    22   11   27 1
    23   12   13 ar
    24   13   14 ar
    25   13   28 1
    26   14   29 1
    27   15   16 am
    28   15   20 2
    29   16   17 1
    30   16   32 1
    31   17   18 2
    32   17   19 1
    33   19   30 1
    34   19   31 1
@<TRIPOS>MOLECULE
CHEMBL159633
   68    72     0     0     0
SMALL
USER_CHARGES

@<TRIPOS>ATOM
      1 C1          0.0180   -1.1779   -0.0044 C.1       1 <0>        -0.1717
      2 C2          0.0021   -0.0041    0.0020 C.1       1 <0>        -0.2208
      3 C3         -0.0179    1.4678    0.0101 C.3       1 <0>         0.2297
      4 N1          1.3565    1.9749   -0.0003 N.pl3     1 <0>        -0.6097
      5 C4          2.0316    2.2352   -1.2741 C.3       1 <0>         0.1600
      6 C5          1.7714    3.6575   -1.6991 C.ar      1 <0>        -0.1276
      7 C6          0.6636    3.9497   -2.4842 C.ar      1 <0>        -0.0582
      8 C7          0.4041    5.2407   -2.8853 C.ar      1 <0>        -0.1029
      9 C8          1.2642    6.2709   -2.4991 C.ar      1 <0>         0.1611
     10 C9          2.3898    5.9701   -1.7007 C.ar      1 <0>        -0.1939
     11 C10         2.6313    4.6574   -1.3008 C.ar      1 <0>        -0.0234
     12 C11         3.2758    7.0773   -1.3117 C.2       1 <0>         0.5536
     13 N2          2.9516    8.3171   -1.7470 N.am      1 <0>        -0.6470
     14 C12         1.8471    8.5143   -2.5131 C.2       1 <0>         0.4150
     15 N3          1.0468    7.5569   -2.8720 N.2       1 <0>        -0.5071
     16 C13         1.5343    9.9162   -2.9691 C.3       1 <0>        -0.0930
     17 S1          0.0206    9.9034   -3.9686 S.3       1 <0>         0.1128
     18 C14        -0.2070   11.5915   -4.4191 C.ar      1 <0>         0.2719
     19 N4          0.6700   12.4955   -4.0060 N.ar      1 <0>        -0.5354
     20 C15         0.5285   13.7707   -4.3269 C.ar      1 <0>         0.1635
     21 C16        -0.5524   14.1565   -5.1045 C.ar      1 <0>        -0.2369
     22 C17        -1.4505   13.1856   -5.5195 C.ar      1 <0>         0.1665
     23 N5         -1.2483   11.9268   -5.1678 N.ar      1 <0>        -0.4998
     24 O1          4.2622    6.8862   -0.6245 O.2       1 <0>        -0.4987
     25 C18         2.0203    2.2090    1.1989 C.ar      1 <0>         0.2479
     26 C19         3.3243    2.6963    1.1874 C.ar      1 <0>        -0.2055
     27 C20         3.9839    2.9291    2.3725 C.ar      1 <0>        -0.0031
     28 C21         3.3431    2.6757    3.5888 C.ar      1 <0>        -0.1991
     29 C22         2.0335    2.1865    3.5970 C.ar      1 <0>        -0.0342
     30 C23         1.3773    1.9611    2.4086 C.ar      1 <0>        -0.2020
     31 C24         4.0474    2.9237    4.8610 C.2       1 <0>         0.5679
     32 O2          5.1866    3.3489    4.8524 O.2       1 <0>        -0.5375
     33 N6          3.4283    2.6790    6.0329 N.am      1 <0>        -0.7313
     34 C25         4.1278    2.9253    7.2963 C.3       1 <0>         0.1625
     35 C26         3.2223    2.5739    8.4486 C.ar      1 <0>        -0.1070
     36 C27         2.3843    3.5330    8.9866 C.ar      1 <0>        -0.0495
     37 C28         1.5538    3.2107   10.0434 C.ar      1 <0>        -0.1159
     38 C29         1.5608    1.9292   10.5622 C.ar      1 <0>        -0.0478
     39 C30         2.3979    0.9702   10.0238 C.ar      1 <0>        -0.0495
     40 C31         3.2255    1.2914    8.9639 C.ar      1 <0>        -0.0376
     41 N7          2.4058   -0.4016   10.5796 N.pl3     1 <0>         0.0314
     42 O3          1.6800   -0.6832   11.5046 O.2       1 <0>        -0.1543
     43 O4          3.1381   -1.2404   10.1087 O.3       1 <0>        -0.1541
     44 H1          0.0322   -2.2278   -0.0102 H         1 <0>         0.2175
     45 H2         -0.5451    1.8289   -0.8729 H         1 <0>         0.1015
     46 H3         -0.5281    1.8193    0.9069 H         1 <0>         0.1021
     47 H4          3.1042    2.0821   -1.1549 H         1 <0>         0.0927
     48 H5          1.6495    1.5533   -2.0338 H         1 <0>         0.0937
     49 H6         -0.0024    3.1541   -2.7840 H         1 <0>         0.1353
     50 H7         -0.4602    5.4558   -3.4960 H         1 <0>         0.1451
     51 H8          3.4885    4.4248   -0.6864 H         1 <0>         0.1410
     52 H9          1.3902   10.5574   -2.0995 H         1 <0>         0.1300
     53 H10         2.3619   10.2966   -3.5679 H         1 <0>         0.1304
     54 H11         1.2462   14.5027   -3.9871 H         1 <0>         0.1720
     55 H12        -0.6919   15.1913   -5.3806 H         1 <0>         0.1512
     56 H13        -2.3032   13.4534   -6.1259 H         1 <0>         0.1750
     57 H14         3.5129    9.0718   -1.5097 H         1 <0>         0.4218
     58 H15         3.8190    2.8915    0.2474 H         1 <0>         0.1303
     59 H16         4.9956    3.3068    2.3629 H         1 <0>         0.1368
     60 H17         1.5360    1.9894    4.5351 H         1 <0>         0.1217
     61 H18         0.3640    1.5876    2.4143 H         1 <0>         0.1285
     62 H19         2.5196    2.3398    6.0397 H         1 <0>         0.4001
     63 H20         5.0266    2.3102    7.3399 H         1 <0>         0.0857
     64 H21         4.4043    3.9777    7.3594 H         1 <0>         0.0876
     65 H22         2.3788    4.5340    8.5813 H         1 <0>         0.1466
     66 H23         0.8997    3.9601   10.4641 H         1 <0>         0.1518
     67 H24         0.9124    1.6776   11.3884 H         1 <0>         0.1561
     68 H25         3.8770    0.5411    8.5408 H         1 <0>         0.1561
@<TRIPOS>BOND
     1    1    2 3
     2    1   44 1
     3    2    3 1
     4    3    4 1
     5    3   45 1
     6    3   46 1
     7    4    5 1
     8    4   25 1
     9    5   47 1
    10    5   48 1
    11    5    6 1
    12    6   11 ar
    13    6    7 ar
    14    7   49 1
    15    7    8 ar
    16    8   50 1
    17    8    9 ar
    18    9   10 ar
    19    9   15 1
    20   10   12 1
    21   10   11 ar
    22   11   51 1
    23   12   24 2
    24   12   13 am
    25   13   14 1
    26   13   57 1
    27   14   15 2
    28   14   16 1
    29   16   17 1
    30   16   52 1
    31   16   53 1
    32   17   18 1
    33   18   23 ar
    34   18   19 ar
    35   19   20 ar
    36   20   21 ar
    37   20   54 1
    38   21   22 ar
    39   21   55 1
    40   22   23 ar
    41   22   56 1
    42   25   30 ar
    43   25   26 ar
    44   26   27 ar
    45   26   58 1
    46   27   28 ar
    47   27   59 1
    48   28   29 ar
    49   28   31 1
    50   29   30 ar
    51   29   60 1
    52   30   61 1
    53   31   32 2
    54   31   33 am
    55   33   34 1
    56   33   62 1
    57   34   35 1
    58   34   63 1
    59   34   64 1
    60   35   40 ar
    61   35   36 ar
    62   36   37 ar
    63   36   65 1
    64   37   38 ar
    65   37   66 1
    66   38   39 ar
    67   38   67 1
    68   39   40 ar
    69   39   41 1
    70   40   68 1
    71   41   42 2
    72   41   43 1
@<TRIPOS>MOLECULE
CHEMBL1096259
   31    33     0     0     0
SMALL
USER_CHARGES

@<TRIPOS>ATOM
      1 C1         -0.0184    1.5028    0.0103 C.3       1 <0>        -0.1008
      2 C2          0.0021   -0.0041    0.0020 C.2       1 <0>         0.1229
      3 C3          0.0075   -0.7777   -1.1047 C.2       1 <0>        -0.1633
      4 C4          0.0290   -2.1659   -0.6433 C.2       1 <0>        -0.2477
      5 C5          0.0351   -2.1174    0.7574 C.2       1 <0>         0.3076
      6 N1          0.0240   -0.8040    1.1202 N.pl3     1 <0>        -0.5365
      7 H1          0.0284   -0.4803    2.0345 H         1 <0>         0.4266
      8 N2          0.0551   -3.2692    1.4495 N.2       1 <0>        -0.5268
      9 C6          0.0688   -4.4224    0.8441 C.2       1 <0>         0.4167
     10 N3          0.0644   -4.5339   -0.5093 N.am      1 <0>        -0.6447
     11 H2          0.0754   -5.4117   -0.9218 H         1 <0>         0.4224
     12 C7          0.0439   -3.4255   -1.2840 C.2       1 <0>         0.5607
     13 O1          0.0396   -3.5104   -2.5000 O.2       1 <0>        -0.5079
     14 C8          0.0910   -5.6788    1.6760 C.3       1 <0>        -0.1118
     15 S1         -0.0087   -0.2237   -2.7773 S.3       1 <0>         0.0818
     16 C9          1.6969   -0.0661   -3.1907 C.ar      1 <0>        -0.0566
     17 C10         2.6906   -0.3691   -2.2587 C.ar      1 <0>        -0.1781
     18 C11         4.0134   -0.2330   -2.6222 C.ar      1 <0>         0.1150
     19 N4          4.3441    0.1776   -3.8326 N.ar      1 <0>        -0.4933
     20 C12         3.4343    0.4739   -4.7422 C.ar      1 <0>         0.1163
     21 C13         2.0896    0.3594   -4.4606 C.ar      1 <0>        -0.1572
     22 H3          1.0042    1.8801    0.0026 H         1 <0>         0.0875
     23 H4         -0.5455    1.8639   -0.8728 H         1 <0>         0.1011
     24 H5         -0.5286    1.8543    0.9071 H         1 <0>         0.0801
     25 H6          0.0922   -5.4144    2.7334 H         1 <0>         0.1064
     26 H7         -0.7915   -6.2782    1.4524 H         1 <0>         0.0984
     27 H8          0.9883   -6.2525    1.4438 H         1 <0>         0.0983
     28 H9          2.4271   -0.7051   -1.2667 H         1 <0>         0.1276
     29 H10         4.7892   -0.4648   -1.9075 H         1 <0>         0.1542
     30 H11         3.7475    0.8063   -5.7209 H         1 <0>         0.1610
     31 H12         1.3506    0.5994   -5.2107 H         1 <0>         0.1402
@<TRIPOS>BOND
     1    1    2 1
     2    1   22 1
     3    1   23 1
     4    1   24 1
     5    2    6 1
     6    2    3 2
     7    3    4 1
     8    3   15 1
     9    4   12 1
    10    4    5 2
    11    5    6 1
    12    5    8 1
    13    6    7 1
    14    8    9 2
    15    9   10 1
    16    9   14 1
    17   10   11 1
    18   10   12 am
    19   12   13 2
    20   14   25 1
    21   14   26 1
    22   14   27 1
    23   15   16 1
    24   16   21 ar
    25   16   17 ar
    26   17   18 ar
    27   17   28 1
    28   18   19 ar
    29   18   29 1
    30   19   20 ar
    31   20   21 ar
    32   20   30 1
    33   21   31 1
